[VMEM] WARNING: physical memory size is smaller than virtual memory size.
WARNING: option --warmup_instructions is deprecated. Use --warmup-instructions instead.
WARNING: option --simulation_instructions is deprecated. Use --simulation-instructions instead.

*** ChampSim Multicore Out-of-Order Simulator ***
Warmup Instructions: 20000000
Simulation Instructions: 50000000
Number of CPUs: 1
Page size: 8192

Off-chip DRAM Size: 16 GiB Channels: 1 Width: 64-bit Data Rate: 3205 MT/s
Heartbeat CPU 0 instructions: 10000003 cycles: 2858240 heartbeat IPC: 3.499 cumulative IPC: 3.499 (Simulation time: 00 hr 01 min 16 sec)
Warmup finished CPU 0 instructions: 20000002 cycles: 5703291 cumulative IPC: 3.507 (Simulation time: 00 hr 02 min 33 sec)
Warmup complete CPU 0 instructions: 20000002 cycles: 5703291 cumulative IPC: 3.507 (Simulation time: 00 hr 02 min 33 sec)
Heartbeat CPU 0 instructions: 20000008 cycles: 5703292 heartbeat IPC: 3.515 cumulative IPC: 6 (Simulation time: 00 hr 02 min 33 sec)
Heartbeat CPU 0 instructions: 30000012 cycles: 19527484 heartbeat IPC: 0.7234 cumulative IPC: 0.7234 (Simulation time: 00 hr 06 min 43 sec)
Heartbeat CPU 0 instructions: 40000017 cycles: 33308332 heartbeat IPC: 0.7256 cumulative IPC: 0.7245 (Simulation time: 00 hr 10 min 52 sec)
Heartbeat CPU 0 instructions: 50000021 cycles: 46920019 heartbeat IPC: 0.7347 cumulative IPC: 0.7279 (Simulation time: 00 hr 14 min 59 sec)
Heartbeat CPU 0 instructions: 60000024 cycles: 60486812 heartbeat IPC: 0.7371 cumulative IPC: 0.7301 (Simulation time: 00 hr 19 min 04 sec)
Simulation finished CPU 0 instructions: 50000002 cycles: 68347459 cumulative IPC: 0.7316 (Simulation time: 00 hr 23 min 08 sec)
Simulation complete CPU 0 instructions: 50000002 cycles: 68347459 cumulative IPC: 0.7316 (Simulation time: 00 hr 23 min 08 sec)

ChampSim completed all CPUs

=== Simulation ===
CPU 0 runs traces/A2/470.lbm-1274B.champsimtrace.xz

Region of Interest Statistics

CPU 0 cumulative IPC: 0.7316 instructions: 50000002 cycles: 68347459
CPU 0 Branch Prediction Accuracy: 99.79% MPKI: 0.02864 Average ROB Occupancy at Mispredict: 190
Branch type MPKI
BRANCH_DIRECT_JUMP: 0
BRANCH_INDIRECT: 0
BRANCH_CONDITIONAL: 0.02864
BRANCH_DIRECT_CALL: 0
BRANCH_INDIRECT_CALL: 0
BRANCH_RETURN: 0

cpu0->cpu0_STLB TOTAL        ACCESS:      11115 HIT:       5557 MISS:       5558 MSHR_MERGE:          0
cpu0->cpu0_STLB LOAD         ACCESS:      11115 HIT:       5557 MISS:       5558 MSHR_MERGE:          0
cpu0->cpu0_STLB RFO          ACCESS:          0 HIT:          0 MISS:          0 MSHR_MERGE:          0
cpu0->cpu0_STLB PREFETCH     ACCESS:          0 HIT:          0 MISS:          0 MSHR_MERGE:          0
cpu0->cpu0_STLB WRITE        ACCESS:          0 HIT:          0 MISS:          0 MSHR_MERGE:          0
cpu0->cpu0_STLB TRANSLATION  ACCESS:          0 HIT:          0 MISS:          0 MSHR_MERGE:          0
cpu0->cpu0_STLB PREFETCH REQUESTED:          0 ISSUED:          0 USEFUL:          0 USELESS:          0
cpu0->cpu0_STLB AVERAGE MISS LATENCY: 978.3 cycles
cpu0->cpu0_L2C TOTAL        ACCESS:    5029731 HIT:    3331121 MISS:    1698610 MSHR_MERGE:        560
cpu0->cpu0_L2C LOAD         ACCESS:     355732 HIT:     117407 MISS:     238325 MSHR_MERGE:         38
cpu0->cpu0_L2C RFO          ACCESS:    2002730 HIT:     925689 MISS:    1077041 MSHR_MERGE:          0
cpu0->cpu0_L2C PREFETCH     ACCESS:     657384 HIT:     282839 MISS:     374545 MSHR_MERGE:        522
cpu0->cpu0_L2C WRITE        ACCESS:    2002757 HIT:    2002742 MISS:         15 MSHR_MERGE:          0
cpu0->cpu0_L2C TRANSLATION  ACCESS:      11128 HIT:       2444 MISS:       8684 MSHR_MERGE:          0
cpu0->cpu0_L2C PREFETCH REQUESTED:     657384 ISSUED:     657384 USEFUL:     117445 USELESS:          0
cpu0->cpu0_L2C AVERAGE MISS LATENCY: 361.4 cycles
cpu0->cpu0_L1I TOTAL        ACCESS:    7021598 HIT:    7021598 MISS:          0 MSHR_MERGE:          0
cpu0->cpu0_L1I LOAD         ACCESS:    7021598 HIT:    7021598 MISS:          0 MSHR_MERGE:          0
cpu0->cpu0_L1I RFO          ACCESS:          0 HIT:          0 MISS:          0 MSHR_MERGE:          0
cpu0->cpu0_L1I PREFETCH     ACCESS:          0 HIT:          0 MISS:          0 MSHR_MERGE:          0
cpu0->cpu0_L1I WRITE        ACCESS:          0 HIT:          0 MISS:          0 MSHR_MERGE:          0
cpu0->cpu0_L1I TRANSLATION  ACCESS:          0 HIT:          0 MISS:          0 MSHR_MERGE:          0
cpu0->cpu0_L1I PREFETCH REQUESTED:          0 ISSUED:          0 USEFUL:          0 USELESS:          0
cpu0->cpu0_L1I AVERAGE MISS LATENCY: - cycles
cpu0->cpu0_L1D TOTAL        ACCESS:    7249559 HIT:    4701669 MISS:    2547890 MSHR_MERGE:     178270
cpu0->cpu0_L1D LOAD         ACCESS:    2214912 HIT:    1706125 MISS:     508787 MSHR_MERGE:     153055
cpu0->cpu0_L1D RFO          ACCESS:          0 HIT:          0 MISS:          0 MSHR_MERGE:          0
cpu0->cpu0_L1D PREFETCH     ACCESS:          0 HIT:          0 MISS:          0 MSHR_MERGE:          0
cpu0->cpu0_L1D WRITE        ACCESS:    5023519 HIT:    2995544 MISS:    2027975 MSHR_MERGE:      25215
cpu0->cpu0_L1D TRANSLATION  ACCESS:      11128 HIT:          0 MISS:      11128 MSHR_MERGE:          0
cpu0->cpu0_L1D PREFETCH REQUESTED:          0 ISSUED:          0 USEFUL:          0 USELESS:          0
cpu0->cpu0_L1D AVERAGE MISS LATENCY: 210.9 cycles
cpu0->cpu0_ITLB TOTAL        ACCESS:    5523594 HIT:    5523594 MISS:          0 MSHR_MERGE:          0
cpu0->cpu0_ITLB LOAD         ACCESS:    5523594 HIT:    5523594 MISS:          0 MSHR_MERGE:          0
cpu0->cpu0_ITLB RFO          ACCESS:          0 HIT:          0 MISS:          0 MSHR_MERGE:          0
cpu0->cpu0_ITLB PREFETCH     ACCESS:          0 HIT:          0 MISS:          0 MSHR_MERGE:          0
cpu0->cpu0_ITLB WRITE        ACCESS:          0 HIT:          0 MISS:          0 MSHR_MERGE:          0
cpu0->cpu0_ITLB TRANSLATION  ACCESS:          0 HIT:          0 MISS:          0 MSHR_MERGE:          0
cpu0->cpu0_ITLB PREFETCH REQUESTED:          0 ISSUED:          0 USEFUL:          0 USELESS:          0
cpu0->cpu0_ITLB AVERAGE MISS LATENCY: - cycles
cpu0->cpu0_DTLB TOTAL        ACCESS:    6620576 HIT:    6598582 MISS:      21994 MSHR_MERGE:      10879
cpu0->cpu0_DTLB LOAD         ACCESS:    6620576 HIT:    6598582 MISS:      21994 MSHR_MERGE:      10879
cpu0->cpu0_DTLB RFO          ACCESS:          0 HIT:          0 MISS:          0 MSHR_MERGE:          0
cpu0->cpu0_DTLB PREFETCH     ACCESS:          0 HIT:          0 MISS:          0 MSHR_MERGE:          0
cpu0->cpu0_DTLB WRITE        ACCESS:          0 HIT:          0 MISS:          0 MSHR_MERGE:          0
cpu0->cpu0_DTLB TRANSLATION  ACCESS:          0 HIT:          0 MISS:          0 MSHR_MERGE:          0
cpu0->cpu0_DTLB PREFETCH REQUESTED:          0 ISSUED:          0 USEFUL:          0 USELESS:          0
cpu0->cpu0_DTLB AVERAGE MISS LATENCY: 493.7 cycles
cpu0->LLC TOTAL        ACCESS:    2775391 HIT:     322766 MISS:    2452625 MSHR_MERGE:        888
cpu0->LLC LOAD         ACCESS:     238287 HIT:      69748 MISS:     168539 MSHR_MERGE:         81
cpu0->LLC RFO          ACCESS:    1077040 HIT:      19541 MISS:    1057499 MSHR_MERGE:          0
cpu0->LLC PREFETCH     ACCESS:     374023 HIT:     185938 MISS:     188085 MSHR_MERGE:        807
cpu0->LLC WRITE        ACCESS:    1077357 HIT:      47539 MISS:    1029818 MSHR_MERGE:          0
cpu0->LLC TRANSLATION  ACCESS:       8684 HIT:          0 MISS:       8684 MSHR_MERGE:          0
cpu0->LLC PREFETCH REQUESTED:          0 ISSUED:          0 USEFUL:          0 USELESS:          0
cpu0->LLC AVERAGE MISS LATENCY: 205.5 cycles

DRAM Statistics

Channel 0 RQ ROW_BUFFER_HIT:      20659
  ROW_BUFFER_MISS:    1401179
  AVG DBUS CONGESTED CYCLE: 11.98
Channel 0 WQ ROW_BUFFER_HIT:     173813
  ROW_BUFFER_MISS:     902749
  FULL:         76
Channel 0 REFRESHES ISSUED:       5695
