[VMEM] WARNING: physical memory size is smaller than virtual memory size.
WARNING: option --warmup_instructions is deprecated. Use --warmup-instructions instead.
WARNING: option --simulation_instructions is deprecated. Use --simulation-instructions instead.

*** ChampSim Multicore Out-of-Order Simulator ***
Warmup Instructions: 20000000
Simulation Instructions: 50000000
Number of CPUs: 1
Page size: 8192

Off-chip DRAM Size: 16 GiB Channels: 1 Width: 64-bit Data Rate: 3205 MT/s
Heartbeat CPU 0 instructions: 10000001 cycles: 4631040 heartbeat IPC: 2.159 cumulative IPC: 2.159 (Simulation time: 00 hr 00 min 54 sec)
Heartbeat CPU 0 instructions: 20000002 cycles: 9209965 heartbeat IPC: 2.184 cumulative IPC: 2.172 (Simulation time: 00 hr 01 min 49 sec)
Warmup finished CPU 0 instructions: 20000002 cycles: 9209965 cumulative IPC: 2.172 (Simulation time: 00 hr 01 min 49 sec)
Warmup complete CPU 0 instructions: 20000002 cycles: 9209965 cumulative IPC: 2.172 (Simulation time: 00 hr 01 min 49 sec)
Heartbeat CPU 0 instructions: 30000005 cycles: 38754491 heartbeat IPC: 0.3385 cumulative IPC: 0.3385 (Simulation time: 00 hr 04 min 29 sec)
Heartbeat CPU 0 instructions: 40000005 cycles: 67871754 heartbeat IPC: 0.3434 cumulative IPC: 0.3409 (Simulation time: 00 hr 07 min 07 sec)
Heartbeat CPU 0 instructions: 50000007 cycles: 97195283 heartbeat IPC: 0.341 cumulative IPC: 0.341 (Simulation time: 00 hr 09 min 48 sec)
Heartbeat CPU 0 instructions: 60000007 cycles: 126146115 heartbeat IPC: 0.3454 cumulative IPC: 0.3421 (Simulation time: 00 hr 12 min 25 sec)
Simulation finished CPU 0 instructions: 50000002 cycles: 146138521 cumulative IPC: 0.3421 (Simulation time: 00 hr 15 min 05 sec)
Simulation complete CPU 0 instructions: 50000002 cycles: 146138521 cumulative IPC: 0.3421 (Simulation time: 00 hr 15 min 05 sec)

ChampSim completed all CPUs

=== Simulation ===
CPU 0 runs traces/605.mcf_s-1152B.champsimtrace.xz

Region of Interest Statistics

CPU 0 cumulative IPC: 0.3421 instructions: 50000002 cycles: 146138521
CPU 0 Branch Prediction Accuracy: 90.19% MPKI: 24.48 Average ROB Occupancy at Mispredict: 21.33
Branch type MPKI
BRANCH_DIRECT_JUMP: 0.2057
BRANCH_INDIRECT: 0
BRANCH_CONDITIONAL: 24.27
BRANCH_DIRECT_CALL: 0
BRANCH_INDIRECT_CALL: 0.0036
BRANCH_RETURN: 2e-05

cpu0->cpu0_STLB TOTAL        ACCESS:    1006203 HIT:    1000446 MISS:       5757 MSHR_MERGE:          0
cpu0->cpu0_STLB LOAD         ACCESS:    1006203 HIT:    1000446 MISS:       5757 MSHR_MERGE:          0
cpu0->cpu0_STLB RFO          ACCESS:          0 HIT:          0 MISS:          0 MSHR_MERGE:          0
cpu0->cpu0_STLB PREFETCH     ACCESS:          0 HIT:          0 MISS:          0 MSHR_MERGE:          0
cpu0->cpu0_STLB WRITE        ACCESS:          0 HIT:          0 MISS:          0 MSHR_MERGE:          0
cpu0->cpu0_STLB TRANSLATION  ACCESS:          0 HIT:          0 MISS:          0 MSHR_MERGE:          0
cpu0->cpu0_STLB PREFETCH REQUESTED:          0 ISSUED:          0 USEFUL:          0 USELESS:          0
cpu0->cpu0_STLB AVERAGE MISS LATENCY: 613.6 cycles
cpu0->cpu0_L2C TOTAL        ACCESS:    5745848 HIT:    3014961 MISS:    2730887 MSHR_MERGE:     421086
cpu0->cpu0_L2C LOAD         ACCESS:    2552744 HIT:    1023332 MISS:    1529412 MSHR_MERGE:      28429
cpu0->cpu0_L2C RFO          ACCESS:     187387 HIT:      55286 MISS:     132101 MSHR_MERGE:          0
cpu0->cpu0_L2C PREFETCH     ACCESS:    2731562 HIT:    1669321 MISS:    1062241 MSHR_MERGE:     392657
cpu0->cpu0_L2C WRITE        ACCESS:     265806 HIT:     265477 MISS:        329 MSHR_MERGE:          0
cpu0->cpu0_L2C TRANSLATION  ACCESS:       8349 HIT:       1545 MISS:       6804 MSHR_MERGE:          0
cpu0->cpu0_L2C PREFETCH REQUESTED:    2731616 ISSUED:    2731562 USEFUL:     635321 USELESS:      34271
cpu0->cpu0_L2C AVERAGE MISS LATENCY: 51.9 cycles
cpu0->cpu0_L1I TOTAL        ACCESS:     434429 HIT:     434429 MISS:          0 MSHR_MERGE:          0
cpu0->cpu0_L1I LOAD         ACCESS:     434429 HIT:     434429 MISS:          0 MSHR_MERGE:          0
cpu0->cpu0_L1I RFO          ACCESS:          0 HIT:          0 MISS:          0 MSHR_MERGE:          0
cpu0->cpu0_L1I PREFETCH     ACCESS:          0 HIT:          0 MISS:          0 MSHR_MERGE:          0
cpu0->cpu0_L1I WRITE        ACCESS:          0 HIT:          0 MISS:          0 MSHR_MERGE:          0
cpu0->cpu0_L1I TRANSLATION  ACCESS:          0 HIT:          0 MISS:          0 MSHR_MERGE:          0
cpu0->cpu0_L1I PREFETCH REQUESTED:          0 ISSUED:          0 USEFUL:          0 USELESS:          0
cpu0->cpu0_L1I AVERAGE MISS LATENCY: - cycles
cpu0->cpu0_L1D TOTAL        ACCESS:   17982070 HIT:   14407294 MISS:    3574776 MSHR_MERGE:     826293
cpu0->cpu0_L1D LOAD         ACCESS:   12806123 HIT:    9720377 MISS:    3085746 MSHR_MERGE:     533002
cpu0->cpu0_L1D RFO          ACCESS:          0 HIT:          0 MISS:          0 MSHR_MERGE:          0
cpu0->cpu0_L1D PREFETCH     ACCESS:          0 HIT:          0 MISS:          0 MSHR_MERGE:          0
cpu0->cpu0_L1D WRITE        ACCESS:    5164337 HIT:    4683656 MISS:     480681 MSHR_MERGE:     293291
cpu0->cpu0_L1D TRANSLATION  ACCESS:      11610 HIT:       3261 MISS:       8349 MSHR_MERGE:          0
cpu0->cpu0_L1D PREFETCH REQUESTED:          0 ISSUED:          0 USEFUL:          0 USELESS:          0
cpu0->cpu0_L1D AVERAGE MISS LATENCY: 40.13 cycles
cpu0->cpu0_ITLB TOTAL        ACCESS:     402746 HIT:     402746 MISS:          0 MSHR_MERGE:          0
cpu0->cpu0_ITLB LOAD         ACCESS:     402746 HIT:     402746 MISS:          0 MSHR_MERGE:          0
cpu0->cpu0_ITLB RFO          ACCESS:          0 HIT:          0 MISS:          0 MSHR_MERGE:          0
cpu0->cpu0_ITLB PREFETCH     ACCESS:          0 HIT:          0 MISS:          0 MSHR_MERGE:          0
cpu0->cpu0_ITLB WRITE        ACCESS:          0 HIT:          0 MISS:          0 MSHR_MERGE:          0
cpu0->cpu0_ITLB TRANSLATION  ACCESS:          0 HIT:          0 MISS:          0 MSHR_MERGE:          0
cpu0->cpu0_ITLB PREFETCH REQUESTED:          0 ISSUED:          0 USEFUL:          0 USELESS:          0
cpu0->cpu0_ITLB AVERAGE MISS LATENCY: - cycles
cpu0->cpu0_DTLB TOTAL        ACCESS:   16842893 HIT:   15649941 MISS:    1192952 MSHR_MERGE:     186749
cpu0->cpu0_DTLB LOAD         ACCESS:   16842893 HIT:   15649941 MISS:    1192952 MSHR_MERGE:     186749
cpu0->cpu0_DTLB RFO          ACCESS:          0 HIT:          0 MISS:          0 MSHR_MERGE:          0
cpu0->cpu0_DTLB PREFETCH     ACCESS:          0 HIT:          0 MISS:          0 MSHR_MERGE:          0
cpu0->cpu0_DTLB WRITE        ACCESS:          0 HIT:          0 MISS:          0 MSHR_MERGE:          0
cpu0->cpu0_DTLB TRANSLATION  ACCESS:          0 HIT:          0 MISS:          0 MSHR_MERGE:          0
cpu0->cpu0_DTLB PREFETCH REQUESTED:          0 ISSUED:          0 USEFUL:          0 USELESS:          0
cpu0->cpu0_DTLB AVERAGE MISS LATENCY: 7.517 cycles
cpu0->LLC TOTAL        ACCESS:    2511828 HIT:    1429845 MISS:    1081983 MSHR_MERGE:          0
cpu0->LLC LOAD         ACCESS:    1500982 HIT:    1088159 MISS:     412823 MSHR_MERGE:          0
cpu0->LLC RFO          ACCESS:     132101 HIT:     130456 MISS:       1645 MSHR_MERGE:          0
cpu0->LLC PREFETCH     ACCESS:     669584 HIT:      13262 MISS:     656322 MSHR_MERGE:          0
cpu0->LLC WRITE        ACCESS:     202357 HIT:     197962 MISS:       4395 MSHR_MERGE:          0
cpu0->LLC TRANSLATION  ACCESS:       6804 HIT:          6 MISS:       6798 MSHR_MERGE:          0
cpu0->LLC PREFETCH REQUESTED:          0 ISSUED:          0 USEFUL:          0 USELESS:          0
cpu0->LLC AVERAGE MISS LATENCY: 133.5 cycles

DRAM Statistics

Channel 0 RQ ROW_BUFFER_HIT:     289938
  ROW_BUFFER_MISS:     787644
  AVG DBUS CONGESTED CYCLE: 17.12
Channel 0 WQ ROW_BUFFER_HIT:       1448
  ROW_BUFFER_MISS:       5270
  FULL:          0
Channel 0 REFRESHES ISSUED:      12178
