[VMEM] WARNING: physical memory size is smaller than virtual memory size.
WARNING: option --warmup_instructions is deprecated. Use --warmup-instructions instead.
WARNING: option --simulation_instructions is deprecated. Use --simulation-instructions instead.

*** ChampSim Multicore Out-of-Order Simulator ***
Warmup Instructions: 20000000
Simulation Instructions: 50000000
Number of CPUs: 1
Page size: 8192

Off-chip DRAM Size: 16 GiB Channels: 1 Width: 64-bit Data Rate: 3205 MT/s
Heartbeat CPU 0 instructions: 10000000 cycles: 8243452 heartbeat IPC: 1.213 cumulative IPC: 1.213 (Simulation time: 00 hr 01 min 04 sec)
Heartbeat CPU 0 instructions: 20000000 cycles: 15272631 heartbeat IPC: 1.423 cumulative IPC: 1.31 (Simulation time: 00 hr 02 min 02 sec)
Warmup finished CPU 0 instructions: 20000000 cycles: 15272631 cumulative IPC: 1.31 (Simulation time: 00 hr 02 min 02 sec)
Warmup complete CPU 0 instructions: 20000000 cycles: 15272631 cumulative IPC: 1.31 (Simulation time: 00 hr 02 min 02 sec)
Heartbeat CPU 0 instructions: 30000002 cycles: 45050332 heartbeat IPC: 0.3358 cumulative IPC: 0.3358 (Simulation time: 00 hr 04 min 18 sec)
Heartbeat CPU 0 instructions: 40000004 cycles: 74938799 heartbeat IPC: 0.3346 cumulative IPC: 0.3352 (Simulation time: 00 hr 06 min 36 sec)
Heartbeat CPU 0 instructions: 50000004 cycles: 105097968 heartbeat IPC: 0.3316 cumulative IPC: 0.334 (Simulation time: 00 hr 09 min 00 sec)
Heartbeat CPU 0 instructions: 60000007 cycles: 133986033 heartbeat IPC: 0.3462 cumulative IPC: 0.3369 (Simulation time: 00 hr 11 min 23 sec)
Simulation finished CPU 0 instructions: 50000000 cycles: 146670723 cumulative IPC: 0.3409 (Simulation time: 00 hr 13 min 37 sec)
Simulation complete CPU 0 instructions: 50000000 cycles: 146670723 cumulative IPC: 0.3409 (Simulation time: 00 hr 13 min 37 sec)

ChampSim completed all CPUs

=== Simulation ===
CPU 0 runs traces/620.omnetpp_s-874B.champsimtrace.xz

Region of Interest Statistics

CPU 0 cumulative IPC: 0.3409 instructions: 50000000 cycles: 146670723
CPU 0 Branch Prediction Accuracy: 96.16% MPKI: 7.99 Average ROB Occupancy at Mispredict: 58.86
Branch type MPKI
BRANCH_DIRECT_JUMP: 0.9384
BRANCH_INDIRECT: 0.1208
BRANCH_CONDITIONAL: 5.805
BRANCH_DIRECT_CALL: 0.00236
BRANCH_INDIRECT_CALL: 0.7298
BRANCH_RETURN: 0.3936

cpu0->cpu0_STLB TOTAL        ACCESS:     827840 HIT:     690745 MISS:     137095 MSHR_MERGE:          0
cpu0->cpu0_STLB LOAD         ACCESS:     827840 HIT:     690745 MISS:     137095 MSHR_MERGE:          0
cpu0->cpu0_STLB RFO          ACCESS:          0 HIT:          0 MISS:          0 MSHR_MERGE:          0
cpu0->cpu0_STLB PREFETCH     ACCESS:          0 HIT:          0 MISS:          0 MSHR_MERGE:          0
cpu0->cpu0_STLB WRITE        ACCESS:          0 HIT:          0 MISS:          0 MSHR_MERGE:          0
cpu0->cpu0_STLB TRANSLATION  ACCESS:          0 HIT:          0 MISS:          0 MSHR_MERGE:          0
cpu0->cpu0_STLB PREFETCH REQUESTED:          0 ISSUED:          0 USEFUL:          0 USELESS:          0
cpu0->cpu0_STLB AVERAGE MISS LATENCY: 362.6 cycles
cpu0->cpu0_L2C TOTAL        ACCESS:    3085022 HIT:    1345751 MISS:    1739271 MSHR_MERGE:     121156
cpu0->cpu0_L2C LOAD         ACCESS:     933770 HIT:     359221 MISS:     574549 MSHR_MERGE:      19668
cpu0->cpu0_L2C RFO          ACCESS:     139196 HIT:      58638 MISS:      80558 MSHR_MERGE:       2405
cpu0->cpu0_L2C PREFETCH     ACCESS:    1209923 HIT:     405614 MISS:     804309 MSHR_MERGE:      99083
cpu0->cpu0_L2C WRITE        ACCESS:     508802 HIT:     504604 MISS:       4198 MSHR_MERGE:          0
cpu0->cpu0_L2C TRANSLATION  ACCESS:     293331 HIT:      17674 MISS:     275657 MSHR_MERGE:          0
cpu0->cpu0_L2C PREFETCH REQUESTED:    1209935 ISSUED:    1209923 USEFUL:     172814 USELESS:     532781
cpu0->cpu0_L2C AVERAGE MISS LATENCY: 149.8 cycles
cpu0->cpu0_L1I TOTAL        ACCESS:    7889880 HIT:    7864475 MISS:      25405 MSHR_MERGE:       6938
cpu0->cpu0_L1I LOAD         ACCESS:    7889880 HIT:    7864475 MISS:      25405 MSHR_MERGE:       6938
cpu0->cpu0_L1I RFO          ACCESS:          0 HIT:          0 MISS:          0 MSHR_MERGE:          0
cpu0->cpu0_L1I PREFETCH     ACCESS:          0 HIT:          0 MISS:          0 MSHR_MERGE:          0
cpu0->cpu0_L1I WRITE        ACCESS:          0 HIT:          0 MISS:          0 MSHR_MERGE:          0
cpu0->cpu0_L1I TRANSLATION  ACCESS:          0 HIT:          0 MISS:          0 MSHR_MERGE:          0
cpu0->cpu0_L1I PREFETCH REQUESTED:          0 ISSUED:          0 USEFUL:          0 USELESS:          0
cpu0->cpu0_L1I AVERAGE MISS LATENCY: 30.95 cycles
cpu0->cpu0_L1D TOTAL        ACCESS:   18758855 HIT:   17014217 MISS:    1744638 MSHR_MERGE:     396802
cpu0->cpu0_L1D LOAD         ACCESS:    9418187 HIT:    8314496 MISS:    1103691 MSHR_MERGE:     188387
cpu0->cpu0_L1D RFO          ACCESS:          0 HIT:          0 MISS:          0 MSHR_MERGE:          0
cpu0->cpu0_L1D PREFETCH     ACCESS:          0 HIT:          0 MISS:          0 MSHR_MERGE:          0
cpu0->cpu0_L1D WRITE        ACCESS:    9039410 HIT:    8692154 MISS:     347256 MSHR_MERGE:     208055
cpu0->cpu0_L1D TRANSLATION  ACCESS:     301258 HIT:       7567 MISS:     293691 MSHR_MERGE:        360
cpu0->cpu0_L1D PREFETCH REQUESTED:          0 ISSUED:          0 USEFUL:          0 USELESS:          0
cpu0->cpu0_L1D AVERAGE MISS LATENCY: 112.3 cycles
cpu0->cpu0_ITLB TOTAL        ACCESS:    7228320 HIT:    7228116 MISS:        204 MSHR_MERGE:        100
cpu0->cpu0_ITLB LOAD         ACCESS:    7228320 HIT:    7228116 MISS:        204 MSHR_MERGE:        100
cpu0->cpu0_ITLB RFO          ACCESS:          0 HIT:          0 MISS:          0 MSHR_MERGE:          0
cpu0->cpu0_ITLB PREFETCH     ACCESS:          0 HIT:          0 MISS:          0 MSHR_MERGE:          0
cpu0->cpu0_ITLB WRITE        ACCESS:          0 HIT:          0 MISS:          0 MSHR_MERGE:          0
cpu0->cpu0_ITLB TRANSLATION  ACCESS:          0 HIT:          0 MISS:          0 MSHR_MERGE:          0
cpu0->cpu0_ITLB PREFETCH REQUESTED:          0 ISSUED:          0 USEFUL:          0 USELESS:          0
cpu0->cpu0_ITLB AVERAGE MISS LATENCY: 194.2 cycles
cpu0->cpu0_DTLB TOTAL        ACCESS:   17187899 HIT:   16242408 MISS:     945491 MSHR_MERGE:     117755
cpu0->cpu0_DTLB LOAD         ACCESS:   17187899 HIT:   16242408 MISS:     945491 MSHR_MERGE:     117755
cpu0->cpu0_DTLB RFO          ACCESS:          0 HIT:          0 MISS:          0 MSHR_MERGE:          0
cpu0->cpu0_DTLB PREFETCH     ACCESS:          0 HIT:          0 MISS:          0 MSHR_MERGE:          0
cpu0->cpu0_DTLB WRITE        ACCESS:          0 HIT:          0 MISS:          0 MSHR_MERGE:          0
cpu0->cpu0_DTLB TRANSLATION  ACCESS:          0 HIT:          0 MISS:          0 MSHR_MERGE:          0
cpu0->cpu0_DTLB PREFETCH REQUESTED:          0 ISSUED:          0 USEFUL:          0 USELESS:          0
cpu0->cpu0_DTLB AVERAGE MISS LATENCY: 64.19 cycles
cpu0->LLC TOTAL        ACCESS:    2014560 HIT:     284946 MISS:    1729614 MSHR_MERGE:          0
cpu0->LLC LOAD         ACCESS:     554881 HIT:      88750 MISS:     466131 MSHR_MERGE:          0
cpu0->LLC RFO          ACCESS:      78153 HIT:       9169 MISS:      68984 MSHR_MERGE:          0
cpu0->LLC PREFETCH     ACCESS:     705226 HIT:      74946 MISS:     630280 MSHR_MERGE:          0
cpu0->LLC WRITE        ACCESS:     400643 HIT:      78490 MISS:     322153 MSHR_MERGE:          0
cpu0->LLC TRANSLATION  ACCESS:     275657 HIT:      33591 MISS:     242066 MSHR_MERGE:          0
cpu0->LLC PREFETCH REQUESTED:          0 ISSUED:          0 USEFUL:          0 USELESS:          0
cpu0->LLC AVERAGE MISS LATENCY: 113.5 cycles

DRAM Statistics

Channel 0 RQ ROW_BUFFER_HIT:      24385
  ROW_BUFFER_MISS:    1382892
  AVG DBUS CONGESTED CYCLE: 19.68
Channel 0 WQ ROW_BUFFER_HIT:      88510
  ROW_BUFFER_MISS:     232803
  FULL:          0
Channel 0 REFRESHES ISSUED:      12223
