[VMEM] WARNING: physical memory size is smaller than virtual memory size.
WARNING: option --warmup_instructions is deprecated. Use --warmup-instructions instead.
WARNING: option --simulation_instructions is deprecated. Use --simulation-instructions instead.

*** ChampSim Multicore Out-of-Order Simulator ***
Warmup Instructions: 20000000
Simulation Instructions: 50000000
Number of CPUs: 1
Page size: 8192

Off-chip DRAM Size: 16 GiB Channels: 1 Width: 64-bit Data Rate: 3205 MT/s
Heartbeat CPU 0 instructions: 10000003 cycles: 4567947 heartbeat IPC: 2.189 cumulative IPC: 2.189 (Simulation time: 00 hr 00 min 55 sec)
Warmup finished CPU 0 instructions: 20000000 cycles: 9082263 cumulative IPC: 2.202 (Simulation time: 00 hr 01 min 49 sec)
Warmup complete CPU 0 instructions: 20000000 cycles: 9082263 cumulative IPC: 2.202 (Simulation time: 00 hr 01 min 49 sec)
Heartbeat CPU 0 instructions: 20000006 cycles: 9082264 heartbeat IPC: 2.215 cumulative IPC: 6 (Simulation time: 00 hr 01 min 49 sec)
Heartbeat CPU 0 instructions: 30000009 cycles: 38084863 heartbeat IPC: 0.3448 cumulative IPC: 0.3448 (Simulation time: 00 hr 04 min 24 sec)
Heartbeat CPU 0 instructions: 40000013 cycles: 66916452 heartbeat IPC: 0.3468 cumulative IPC: 0.3458 (Simulation time: 00 hr 07 min 00 sec)
Heartbeat CPU 0 instructions: 50000016 cycles: 95771120 heartbeat IPC: 0.3466 cumulative IPC: 0.3461 (Simulation time: 00 hr 09 min 37 sec)
Heartbeat CPU 0 instructions: 60000017 cycles: 124371636 heartbeat IPC: 0.3496 cumulative IPC: 0.347 (Simulation time: 00 hr 12 min 11 sec)
Simulation finished CPU 0 instructions: 50000001 cycles: 144194958 cumulative IPC: 0.3468 (Simulation time: 00 hr 14 min 48 sec)
Simulation complete CPU 0 instructions: 50000001 cycles: 144194958 cumulative IPC: 0.3468 (Simulation time: 00 hr 14 min 48 sec)

ChampSim completed all CPUs

=== Simulation ===
CPU 0 runs traces/605.mcf_s-1152B.champsimtrace.xz

Region of Interest Statistics

CPU 0 cumulative IPC: 0.3468 instructions: 50000001 cycles: 144194958
CPU 0 Branch Prediction Accuracy: 90.19% MPKI: 24.48 Average ROB Occupancy at Mispredict: 18.85
Branch type MPKI
BRANCH_DIRECT_JUMP: 0.2057
BRANCH_INDIRECT: 0
BRANCH_CONDITIONAL: 24.27
BRANCH_DIRECT_CALL: 0
BRANCH_INDIRECT_CALL: 0.0036
BRANCH_RETURN: 2e-05

cpu0->cpu0_STLB TOTAL        ACCESS:    1006056 HIT:    1000299 MISS:       5757 MSHR_MERGE:          0
cpu0->cpu0_STLB LOAD         ACCESS:    1006056 HIT:    1000299 MISS:       5757 MSHR_MERGE:          0
cpu0->cpu0_STLB RFO          ACCESS:          0 HIT:          0 MISS:          0 MSHR_MERGE:          0
cpu0->cpu0_STLB PREFETCH     ACCESS:          0 HIT:          0 MISS:          0 MSHR_MERGE:          0
cpu0->cpu0_STLB WRITE        ACCESS:          0 HIT:          0 MISS:          0 MSHR_MERGE:          0
cpu0->cpu0_STLB TRANSLATION  ACCESS:          0 HIT:          0 MISS:          0 MSHR_MERGE:          0
cpu0->cpu0_STLB PREFETCH REQUESTED:          0 ISSUED:          0 USEFUL:          0 USELESS:          0
cpu0->cpu0_STLB AVERAGE MISS LATENCY: 613.2 cycles
cpu0->cpu0_L2C TOTAL        ACCESS:    5228952 HIT:    2621184 MISS:    2607768 MSHR_MERGE:     299923
cpu0->cpu0_L2C LOAD         ACCESS:    2552713 HIT:    1008179 MISS:    1544534 MSHR_MERGE:      22821
cpu0->cpu0_L2C RFO          ACCESS:     187424 HIT:      52703 MISS:     134721 MSHR_MERGE:          0
cpu0->cpu0_L2C PREFETCH     ACCESS:    2214637 HIT:    1293255 MISS:     921382 MSHR_MERGE:     277102
cpu0->cpu0_L2C WRITE        ACCESS:     265830 HIT:     265500 MISS:        330 MSHR_MERGE:          0
cpu0->cpu0_L2C TRANSLATION  ACCESS:       8348 HIT:       1547 MISS:       6801 MSHR_MERGE:          0
cpu0->cpu0_L2C PREFETCH REQUESTED:    2217069 ISSUED:    2214637 USEFUL:     614797 USELESS:      29493
cpu0->cpu0_L2C AVERAGE MISS LATENCY: 51.37 cycles
cpu0->cpu0_L1I TOTAL        ACCESS:     417215 HIT:     417215 MISS:          0 MSHR_MERGE:          0
cpu0->cpu0_L1I LOAD         ACCESS:     417215 HIT:     417215 MISS:          0 MSHR_MERGE:          0
cpu0->cpu0_L1I RFO          ACCESS:          0 HIT:          0 MISS:          0 MSHR_MERGE:          0
cpu0->cpu0_L1I PREFETCH     ACCESS:          0 HIT:          0 MISS:          0 MSHR_MERGE:          0
cpu0->cpu0_L1I WRITE        ACCESS:          0 HIT:          0 MISS:          0 MSHR_MERGE:          0
cpu0->cpu0_L1I TRANSLATION  ACCESS:          0 HIT:          0 MISS:          0 MSHR_MERGE:          0
cpu0->cpu0_L1I PREFETCH REQUESTED:          0 ISSUED:          0 USEFUL:          0 USELESS:          0
cpu0->cpu0_L1I AVERAGE MISS LATENCY: - cycles
cpu0->cpu0_L1D TOTAL        ACCESS:   17667367 HIT:   14069447 MISS:    3597920 MSHR_MERGE:     849430
cpu0->cpu0_L1D LOAD         ACCESS:   12509015 HIT:    9417505 MISS:    3091510 MSHR_MERGE:     538796
cpu0->cpu0_L1D RFO          ACCESS:          0 HIT:          0 MISS:          0 MSHR_MERGE:          0
cpu0->cpu0_L1D PREFETCH     ACCESS:          0 HIT:          0 MISS:          0 MSHR_MERGE:          0
cpu0->cpu0_L1D WRITE        ACCESS:    5146742 HIT:    4648680 MISS:     498062 MSHR_MERGE:     310634
cpu0->cpu0_L1D TRANSLATION  ACCESS:      11610 HIT:       3262 MISS:       8348 MSHR_MERGE:          0
cpu0->cpu0_L1D PREFETCH REQUESTED:          0 ISSUED:          0 USEFUL:          0 USELESS:          0
cpu0->cpu0_L1D AVERAGE MISS LATENCY: 40.14 cycles
cpu0->cpu0_ITLB TOTAL        ACCESS:     383757 HIT:     383757 MISS:          0 MSHR_MERGE:          0
cpu0->cpu0_ITLB LOAD         ACCESS:     383757 HIT:     383757 MISS:          0 MSHR_MERGE:          0
cpu0->cpu0_ITLB RFO          ACCESS:          0 HIT:          0 MISS:          0 MSHR_MERGE:          0
cpu0->cpu0_ITLB PREFETCH     ACCESS:          0 HIT:          0 MISS:          0 MSHR_MERGE:          0
cpu0->cpu0_ITLB WRITE        ACCESS:          0 HIT:          0 MISS:          0 MSHR_MERGE:          0
cpu0->cpu0_ITLB TRANSLATION  ACCESS:          0 HIT:          0 MISS:          0 MSHR_MERGE:          0
cpu0->cpu0_ITLB PREFETCH REQUESTED:          0 ISSUED:          0 USEFUL:          0 USELESS:          0
cpu0->cpu0_ITLB AVERAGE MISS LATENCY: - cycles
cpu0->cpu0_DTLB TOTAL        ACCESS:   16465431 HIT:   15274459 MISS:    1190972 MSHR_MERGE:     184916
cpu0->cpu0_DTLB LOAD         ACCESS:   16465431 HIT:   15274459 MISS:    1190972 MSHR_MERGE:     184916
cpu0->cpu0_DTLB RFO          ACCESS:          0 HIT:          0 MISS:          0 MSHR_MERGE:          0
cpu0->cpu0_DTLB PREFETCH     ACCESS:          0 HIT:          0 MISS:          0 MSHR_MERGE:          0
cpu0->cpu0_DTLB WRITE        ACCESS:          0 HIT:          0 MISS:          0 MSHR_MERGE:          0
cpu0->cpu0_DTLB TRANSLATION  ACCESS:          0 HIT:          0 MISS:          0 MSHR_MERGE:          0
cpu0->cpu0_DTLB PREFETCH REQUESTED:          0 ISSUED:          0 USEFUL:          0 USELESS:          0
cpu0->cpu0_DTLB AVERAGE MISS LATENCY: 7.515 cycles
cpu0->LLC TOTAL        ACCESS:    2510801 HIT:    1448139 MISS:    1062662 MSHR_MERGE:          0
cpu0->LLC LOAD         ACCESS:    1521713 HIT:    1103319 MISS:     418394 MSHR_MERGE:          0
cpu0->LLC RFO          ACCESS:     134721 HIT:     133060 MISS:       1661 MSHR_MERGE:          0
cpu0->LLC PREFETCH     ACCESS:     644280 HIT:      12538 MISS:     631742 MSHR_MERGE:          0
cpu0->LLC WRITE        ACCESS:     203286 HIT:     199214 MISS:       4072 MSHR_MERGE:          0
cpu0->LLC TRANSLATION  ACCESS:       6801 HIT:          8 MISS:       6793 MSHR_MERGE:          0
cpu0->LLC PREFETCH REQUESTED:          0 ISSUED:          0 USEFUL:          0 USELESS:          0
cpu0->LLC AVERAGE MISS LATENCY: 133.4 cycles

DRAM Statistics

Channel 0 RQ ROW_BUFFER_HIT:     297938
  ROW_BUFFER_MISS:     760646
  AVG DBUS CONGESTED CYCLE: 14.1
Channel 0 WQ ROW_BUFFER_HIT:       1155
  ROW_BUFFER_MISS:       5395
  FULL:          0
Channel 0 REFRESHES ISSUED:      12017
