[VMEM] WARNING: physical memory size is smaller than virtual memory size.
WARNING: option --warmup_instructions is deprecated. Use --warmup-instructions instead.
WARNING: option --simulation_instructions is deprecated. Use --simulation-instructions instead.

*** ChampSim Multicore Out-of-Order Simulator ***
Warmup Instructions: 20000000
Simulation Instructions: 50000000
Number of CPUs: 1
Page size: 8192

Off-chip DRAM Size: 16 GiB Channels: 1 Width: 64-bit Data Rate: 3205 MT/s
Heartbeat CPU 0 instructions: 10000000 cycles: 8321660 heartbeat IPC: 1.202 cumulative IPC: 1.202 (Simulation time: 00 hr 01 min 24 sec)
Heartbeat CPU 0 instructions: 20000000 cycles: 15433196 heartbeat IPC: 1.406 cumulative IPC: 1.296 (Simulation time: 00 hr 02 min 38 sec)
Warmup finished CPU 0 instructions: 20000000 cycles: 15433196 cumulative IPC: 1.296 (Simulation time: 00 hr 02 min 38 sec)
Warmup complete CPU 0 instructions: 20000000 cycles: 15433196 cumulative IPC: 1.296 (Simulation time: 00 hr 02 min 38 sec)
Heartbeat CPU 0 instructions: 30000002 cycles: 44488897 heartbeat IPC: 0.3442 cumulative IPC: 0.3442 (Simulation time: 00 hr 05 min 43 sec)
Heartbeat CPU 0 instructions: 40000004 cycles: 73750646 heartbeat IPC: 0.3417 cumulative IPC: 0.343 (Simulation time: 00 hr 08 min 49 sec)
Heartbeat CPU 0 instructions: 50000004 cycles: 102952688 heartbeat IPC: 0.3424 cumulative IPC: 0.3428 (Simulation time: 00 hr 11 min 58 sec)
Heartbeat CPU 0 instructions: 60000007 cycles: 130479131 heartbeat IPC: 0.3633 cumulative IPC: 0.3477 (Simulation time: 00 hr 14 min 55 sec)
Simulation finished CPU 0 instructions: 50000001 cycles: 141853881 cumulative IPC: 0.3525 (Simulation time: 00 hr 17 min 49 sec)
Simulation complete CPU 0 instructions: 50000001 cycles: 141853881 cumulative IPC: 0.3525 (Simulation time: 00 hr 17 min 49 sec)

ChampSim completed all CPUs

=== Simulation ===
CPU 0 runs traces/620.omnetpp_s-874B.champsimtrace.xz

Region of Interest Statistics

CPU 0 cumulative IPC: 0.3525 instructions: 50000001 cycles: 141853881
CPU 0 Branch Prediction Accuracy: 96.16% MPKI: 7.99 Average ROB Occupancy at Mispredict: 52.01
Branch type MPKI
BRANCH_DIRECT_JUMP: 0.9384
BRANCH_INDIRECT: 0.1208
BRANCH_CONDITIONAL: 5.805
BRANCH_DIRECT_CALL: 0.00236
BRANCH_INDIRECT_CALL: 0.7298
BRANCH_RETURN: 0.3936

cpu0->cpu0_STLB TOTAL        ACCESS:     828729 HIT:     691634 MISS:     137095 MSHR_MERGE:          0
cpu0->cpu0_STLB LOAD         ACCESS:     828729 HIT:     691634 MISS:     137095 MSHR_MERGE:          0
cpu0->cpu0_STLB RFO          ACCESS:          0 HIT:          0 MISS:          0 MSHR_MERGE:          0
cpu0->cpu0_STLB PREFETCH     ACCESS:          0 HIT:          0 MISS:          0 MSHR_MERGE:          0
cpu0->cpu0_STLB WRITE        ACCESS:          0 HIT:          0 MISS:          0 MSHR_MERGE:          0
cpu0->cpu0_STLB TRANSLATION  ACCESS:          0 HIT:          0 MISS:          0 MSHR_MERGE:          0
cpu0->cpu0_STLB PREFETCH REQUESTED:          0 ISSUED:          0 USEFUL:          0 USELESS:          0
cpu0->cpu0_STLB AVERAGE MISS LATENCY: 325 cycles
cpu0->cpu0_L2C TOTAL        ACCESS:    1964216 HIT:     875149 MISS:    1089067 MSHR_MERGE:       2347
cpu0->cpu0_L2C LOAD         ACCESS:     933834 HIT:     288216 MISS:     645618 MSHR_MERGE:         29
cpu0->cpu0_L2C RFO          ACCESS:     138267 HIT:      31130 MISS:     107137 MSHR_MERGE:          1
cpu0->cpu0_L2C PREFETCH     ACCESS:      93002 HIT:      29578 MISS:      63424 MSHR_MERGE:       2317
cpu0->cpu0_L2C WRITE        ACCESS:     505898 HIT:     503486 MISS:       2412 MSHR_MERGE:          0
cpu0->cpu0_L2C TRANSLATION  ACCESS:     293215 HIT:      22739 MISS:     270476 MSHR_MERGE:          0
cpu0->cpu0_L2C PREFETCH REQUESTED:      93002 ISSUED:      93002 USEFUL:      13484 USELESS:      47555
cpu0->cpu0_L2C AVERAGE MISS LATENCY: 137.5 cycles
cpu0->cpu0_L1I TOTAL        ACCESS:    8287446 HIT:    8262309 MISS:      25137 MSHR_MERGE:       6656
cpu0->cpu0_L1I LOAD         ACCESS:    8287446 HIT:    8262309 MISS:      25137 MSHR_MERGE:       6656
cpu0->cpu0_L1I RFO          ACCESS:          0 HIT:          0 MISS:          0 MSHR_MERGE:          0
cpu0->cpu0_L1I PREFETCH     ACCESS:          0 HIT:          0 MISS:          0 MSHR_MERGE:          0
cpu0->cpu0_L1I WRITE        ACCESS:          0 HIT:          0 MISS:          0 MSHR_MERGE:          0
cpu0->cpu0_L1I TRANSLATION  ACCESS:          0 HIT:          0 MISS:          0 MSHR_MERGE:          0
cpu0->cpu0_L1I PREFETCH REQUESTED:          0 ISSUED:          0 USEFUL:          0 USELESS:          0
cpu0->cpu0_L1I AVERAGE MISS LATENCY: 27.49 cycles
cpu0->cpu0_L1D TOTAL        ACCESS:   18823718 HIT:   17018531 MISS:    1805187 MSHR_MERGE:     458347
cpu0->cpu0_L1D LOAD         ACCESS:    9484246 HIT:    8359837 MISS:    1124409 MSHR_MERGE:     209055
cpu0->cpu0_L1D RFO          ACCESS:          0 HIT:          0 MISS:          0 MSHR_MERGE:          0
cpu0->cpu0_L1D PREFETCH     ACCESS:          0 HIT:          0 MISS:          0 MSHR_MERGE:          0
cpu0->cpu0_L1D WRITE        ACCESS:    9038210 HIT:    8650954 MISS:     387256 MSHR_MERGE:     248985
cpu0->cpu0_L1D TRANSLATION  ACCESS:     301262 HIT:       7740 MISS:     293522 MSHR_MERGE:        307
cpu0->cpu0_L1D PREFETCH REQUESTED:          0 ISSUED:          0 USEFUL:          0 USELESS:          0
cpu0->cpu0_L1D AVERAGE MISS LATENCY: 113.2 cycles
cpu0->cpu0_ITLB TOTAL        ACCESS:    7637328 HIT:    7637124 MISS:        204 MSHR_MERGE:        100
cpu0->cpu0_ITLB LOAD         ACCESS:    7637328 HIT:    7637124 MISS:        204 MSHR_MERGE:        100
cpu0->cpu0_ITLB RFO          ACCESS:          0 HIT:          0 MISS:          0 MSHR_MERGE:          0
cpu0->cpu0_ITLB PREFETCH     ACCESS:          0 HIT:          0 MISS:          0 MSHR_MERGE:          0
cpu0->cpu0_ITLB WRITE        ACCESS:          0 HIT:          0 MISS:          0 MSHR_MERGE:          0
cpu0->cpu0_ITLB TRANSLATION  ACCESS:          0 HIT:          0 MISS:          0 MSHR_MERGE:          0
cpu0->cpu0_ITLB PREFETCH REQUESTED:          0 ISSUED:          0 USEFUL:          0 USELESS:          0
cpu0->cpu0_ITLB AVERAGE MISS LATENCY: 199 cycles
cpu0->cpu0_DTLB TOTAL        ACCESS:   17254001 HIT:   16303486 MISS:     950515 MSHR_MERGE:     121889
cpu0->cpu0_DTLB LOAD         ACCESS:   17254001 HIT:   16303486 MISS:     950515 MSHR_MERGE:     121889
cpu0->cpu0_DTLB RFO          ACCESS:          0 HIT:          0 MISS:          0 MSHR_MERGE:          0
cpu0->cpu0_DTLB PREFETCH     ACCESS:          0 HIT:          0 MISS:          0 MSHR_MERGE:          0
cpu0->cpu0_DTLB WRITE        ACCESS:          0 HIT:          0 MISS:          0 MSHR_MERGE:          0
cpu0->cpu0_DTLB TRANSLATION  ACCESS:          0 HIT:          0 MISS:          0 MSHR_MERGE:          0
cpu0->cpu0_DTLB PREFETCH REQUESTED:          0 ISSUED:          0 USEFUL:          0 USELESS:          0
cpu0->cpu0_DTLB AVERAGE MISS LATENCY: 57.92 cycles
cpu0->LLC TOTAL        ACCESS:    1466364 HIT:     340125 MISS:    1126239 MSHR_MERGE:          0
cpu0->LLC LOAD         ACCESS:     645589 HIT:     130689 MISS:     514900 MSHR_MERGE:          0
cpu0->LLC RFO          ACCESS:     107136 HIT:      23646 MISS:      83490 MSHR_MERGE:          0
cpu0->LLC PREFETCH     ACCESS:      61107 HIT:       2050 MISS:      59057 MSHR_MERGE:          0
cpu0->LLC WRITE        ACCESS:     382056 HIT:     127480 MISS:     254576 MSHR_MERGE:          0
cpu0->LLC TRANSLATION  ACCESS:     270476 HIT:      56260 MISS:     214216 MSHR_MERGE:          0
cpu0->LLC PREFETCH REQUESTED:          0 ISSUED:          0 USEFUL:          0 USELESS:          0
cpu0->LLC AVERAGE MISS LATENCY: 118.2 cycles

DRAM Statistics

Channel 0 RQ ROW_BUFFER_HIT:      17494
  ROW_BUFFER_MISS:     854137
  AVG DBUS CONGESTED CYCLE: 23.33
Channel 0 WQ ROW_BUFFER_HIT:      74324
  ROW_BUFFER_MISS:     205210
  FULL:          0
Channel 0 REFRESHES ISSUED:      11821
