[VMEM] WARNING: physical memory size is smaller than virtual memory size.
WARNING: option --warmup_instructions is deprecated. Use --warmup-instructions instead.
WARNING: option --simulation_instructions is deprecated. Use --simulation-instructions instead.

*** ChampSim Multicore Out-of-Order Simulator ***
Warmup Instructions: 20000000
Simulation Instructions: 50000000
Number of CPUs: 1
Page size: 8192

Off-chip DRAM Size: 32 GiB Channels: 2 Width: 64-bit Data Rate: 3205 MT/s
Heartbeat CPU 0 instructions: 10000000 cycles: 4309813 heartbeat IPC: 2.32 cumulative IPC: 2.32 (Simulation time: 00 hr 00 min 46 sec)
Heartbeat CPU 0 instructions: 20000000 cycles: 8611227 heartbeat IPC: 2.325 cumulative IPC: 2.323 (Simulation time: 00 hr 01 min 32 sec)
Warmup finished CPU 0 instructions: 20000000 cycles: 8611227 cumulative IPC: 2.323 (Simulation time: 00 hr 01 min 32 sec)
Warmup complete CPU 0 instructions: 20000000 cycles: 8611227 cumulative IPC: 2.323 (Simulation time: 00 hr 01 min 32 sec)
Heartbeat CPU 0 instructions: 30000003 cycles: 20675987 heartbeat IPC: 0.8289 cumulative IPC: 0.8289 (Simulation time: 00 hr 03 min 00 sec)
Heartbeat CPU 0 instructions: 40000003 cycles: 32713664 heartbeat IPC: 0.8307 cumulative IPC: 0.8298 (Simulation time: 00 hr 04 min 29 sec)
Heartbeat CPU 0 instructions: 50000003 cycles: 44605369 heartbeat IPC: 0.8409 cumulative IPC: 0.8335 (Simulation time: 00 hr 05 min 56 sec)
Heartbeat CPU 0 instructions: 60000005 cycles: 56509139 heartbeat IPC: 0.8401 cumulative IPC: 0.8351 (Simulation time: 00 hr 07 min 24 sec)
Simulation finished CPU 0 instructions: 50000001 cycles: 59892467 cumulative IPC: 0.8348 (Simulation time: 00 hr 08 min 54 sec)
Simulation complete CPU 0 instructions: 50000001 cycles: 59892467 cumulative IPC: 0.8348 (Simulation time: 00 hr 08 min 54 sec)

ChampSim completed all CPUs

=== Simulation ===
CPU 0 runs traces/603.bwaves_s-1740B.champsimtrace.xz

Region of Interest Statistics

CPU 0 cumulative IPC: 0.8348 instructions: 50000001 cycles: 59892467
CPU 0 Branch Prediction Accuracy: 99.97% MPKI: 0.00734 Average ROB Occupancy at Mispredict: 189.8
Branch type MPKI
BRANCH_DIRECT_JUMP: 0
BRANCH_INDIRECT: 0
BRANCH_CONDITIONAL: 0.00734
BRANCH_DIRECT_CALL: 0
BRANCH_INDIRECT_CALL: 0
BRANCH_RETURN: 0

cpu0->cpu0_STLB TOTAL        ACCESS:       7425 HIT:        365 MISS:       7060 MSHR_MERGE:          0
cpu0->cpu0_STLB LOAD         ACCESS:       7425 HIT:        365 MISS:       7060 MSHR_MERGE:          0
cpu0->cpu0_STLB RFO          ACCESS:          0 HIT:          0 MISS:          0 MSHR_MERGE:          0
cpu0->cpu0_STLB PREFETCH     ACCESS:          0 HIT:          0 MISS:          0 MSHR_MERGE:          0
cpu0->cpu0_STLB WRITE        ACCESS:          0 HIT:          0 MISS:          0 MSHR_MERGE:          0
cpu0->cpu0_STLB TRANSLATION  ACCESS:          0 HIT:          0 MISS:          0 MSHR_MERGE:          0
cpu0->cpu0_STLB PREFETCH REQUESTED:          0 ISSUED:          0 USEFUL:          0 USELESS:          0
cpu0->cpu0_STLB AVERAGE MISS LATENCY: 675.7 cycles
cpu0->cpu0_L2C TOTAL        ACCESS:    1103531 HIT:     134049 MISS:     969482 MSHR_MERGE:          0
cpu0->cpu0_L2C LOAD         ACCESS:    1019104 HIT:      84712 MISS:     934392 MSHR_MERGE:          0
cpu0->cpu0_L2C RFO          ACCESS:      33766 HIT:       9403 MISS:      24363 MSHR_MERGE:          0
cpu0->cpu0_L2C PREFETCH     ACCESS:          0 HIT:          0 MISS:          0 MSHR_MERGE:          0
cpu0->cpu0_L2C WRITE        ACCESS:      37106 HIT:      36834 MISS:        272 MSHR_MERGE:          0
cpu0->cpu0_L2C TRANSLATION  ACCESS:      13555 HIT:       3100 MISS:      10455 MSHR_MERGE:          0
cpu0->cpu0_L2C PREFETCH REQUESTED:          0 ISSUED:          0 USEFUL:          0 USELESS:          0
cpu0->cpu0_L2C AVERAGE MISS LATENCY: 170.6 cycles
cpu0->cpu0_L1I TOTAL        ACCESS:   12091469 HIT:   12091469 MISS:          0 MSHR_MERGE:          0
cpu0->cpu0_L1I LOAD         ACCESS:   12091469 HIT:   12091469 MISS:          0 MSHR_MERGE:          0
cpu0->cpu0_L1I RFO          ACCESS:          0 HIT:          0 MISS:          0 MSHR_MERGE:          0
cpu0->cpu0_L1I PREFETCH     ACCESS:          0 HIT:          0 MISS:          0 MSHR_MERGE:          0
cpu0->cpu0_L1I WRITE        ACCESS:          0 HIT:          0 MISS:          0 MSHR_MERGE:          0
cpu0->cpu0_L1I TRANSLATION  ACCESS:          0 HIT:          0 MISS:          0 MSHR_MERGE:          0
cpu0->cpu0_L1I PREFETCH REQUESTED:          0 ISSUED:          0 USEFUL:          0 USELESS:          0
cpu0->cpu0_L1I AVERAGE MISS LATENCY: - cycles
cpu0->cpu0_L1D TOTAL        ACCESS:   17175224 HIT:   15859340 MISS:    1315884 MSHR_MERGE:     249392
cpu0->cpu0_L1D LOAD         ACCESS:   14344449 HIT:   13089450 MISS:    1254999 MSHR_MERGE:     235845
cpu0->cpu0_L1D RFO          ACCESS:          0 HIT:          0 MISS:          0 MSHR_MERGE:          0
cpu0->cpu0_L1D PREFETCH     ACCESS:          0 HIT:          0 MISS:          0 MSHR_MERGE:          0
cpu0->cpu0_L1D WRITE        ACCESS:    2816699 HIT:    2769622 MISS:      47077 MSHR_MERGE:      13294
cpu0->cpu0_L1D TRANSLATION  ACCESS:      14076 HIT:        268 MISS:      13808 MSHR_MERGE:        253
cpu0->cpu0_L1D PREFETCH REQUESTED:          0 ISSUED:          0 USEFUL:          0 USELESS:          0
cpu0->cpu0_L1D AVERAGE MISS LATENCY: 164 cycles
cpu0->cpu0_ITLB TOTAL        ACCESS:   10987306 HIT:   10987306 MISS:          0 MSHR_MERGE:          0
cpu0->cpu0_ITLB LOAD         ACCESS:   10987306 HIT:   10987306 MISS:          0 MSHR_MERGE:          0
cpu0->cpu0_ITLB RFO          ACCESS:          0 HIT:          0 MISS:          0 MSHR_MERGE:          0
cpu0->cpu0_ITLB PREFETCH     ACCESS:          0 HIT:          0 MISS:          0 MSHR_MERGE:          0
cpu0->cpu0_ITLB WRITE        ACCESS:          0 HIT:          0 MISS:          0 MSHR_MERGE:          0
cpu0->cpu0_ITLB TRANSLATION  ACCESS:          0 HIT:          0 MISS:          0 MSHR_MERGE:          0
cpu0->cpu0_ITLB PREFETCH REQUESTED:          0 ISSUED:          0 USEFUL:          0 USELESS:          0
cpu0->cpu0_ITLB AVERAGE MISS LATENCY: - cycles
cpu0->cpu0_DTLB TOTAL        ACCESS:   16504302 HIT:   16491997 MISS:      12305 MSHR_MERGE:       4880
cpu0->cpu0_DTLB LOAD         ACCESS:   16504302 HIT:   16491997 MISS:      12305 MSHR_MERGE:       4880
cpu0->cpu0_DTLB RFO          ACCESS:          0 HIT:          0 MISS:          0 MSHR_MERGE:          0
cpu0->cpu0_DTLB PREFETCH     ACCESS:          0 HIT:          0 MISS:          0 MSHR_MERGE:          0
cpu0->cpu0_DTLB WRITE        ACCESS:          0 HIT:          0 MISS:          0 MSHR_MERGE:          0
cpu0->cpu0_DTLB TRANSLATION  ACCESS:          0 HIT:          0 MISS:          0 MSHR_MERGE:          0
cpu0->cpu0_DTLB PREFETCH REQUESTED:          0 ISSUED:          0 USEFUL:          0 USELESS:          0
cpu0->cpu0_DTLB AVERAGE MISS LATENCY: 647.4 cycles
cpu0->LLC TOTAL        ACCESS:     993905 HIT:       3994 MISS:     989911 MSHR_MERGE:          0
cpu0->LLC LOAD         ACCESS:     934392 HIT:       1805 MISS:     932587 MSHR_MERGE:          0
cpu0->LLC RFO          ACCESS:      24363 HIT:          1 MISS:      24362 MSHR_MERGE:          0
cpu0->LLC PREFETCH     ACCESS:          0 HIT:          0 MISS:          0 MSHR_MERGE:          0
cpu0->LLC WRITE        ACCESS:      24695 HIT:       2178 MISS:      22517 MSHR_MERGE:          0
cpu0->LLC TRANSLATION  ACCESS:      10455 HIT:         10 MISS:      10445 MSHR_MERGE:          0
cpu0->LLC PREFETCH REQUESTED:          0 ISSUED:          0 USEFUL:          0 USELESS:          0
cpu0->LLC AVERAGE MISS LATENCY: 150.6 cycles

DRAM Statistics

Channel 0 RQ ROW_BUFFER_HIT:        335
  ROW_BUFFER_MISS:     483331
  AVG DBUS CONGESTED CYCLE: 9.811
Channel 0 WQ ROW_BUFFER_HIT:       2681
  ROW_BUFFER_MISS:       9538
  FULL:          0
Channel 0 REFRESHES ISSUED:       4991

Channel 1 RQ ROW_BUFFER_HIT:        387
  ROW_BUFFER_MISS:     483342
  AVG DBUS CONGESTED CYCLE: 9.897
Channel 1 WQ ROW_BUFFER_HIT:       2732
  ROW_BUFFER_MISS:       9557
  FULL:          0
Channel 1 REFRESHES ISSUED:       4991
