[VMEM] WARNING: physical memory size is smaller than virtual memory size.
WARNING: option --warmup_instructions is deprecated. Use --warmup-instructions instead.
WARNING: option --simulation_instructions is deprecated. Use --simulation-instructions instead.

*** ChampSim Multicore Out-of-Order Simulator ***
Warmup Instructions: 20000000
Simulation Instructions: 50000000
Number of CPUs: 1
Page size: 8192

Off-chip DRAM Size: 16 GiB Channels: 1 Width: 64-bit Data Rate: 3205 MT/s
Heartbeat CPU 0 instructions: 10000001 cycles: 4633269 heartbeat IPC: 2.158 cumulative IPC: 2.158 (Simulation time: 00 hr 00 min 57 sec)
Heartbeat CPU 0 instructions: 20000002 cycles: 9213160 heartbeat IPC: 2.183 cumulative IPC: 2.171 (Simulation time: 00 hr 01 min 54 sec)
Warmup finished CPU 0 instructions: 20000002 cycles: 9213160 cumulative IPC: 2.171 (Simulation time: 00 hr 01 min 54 sec)
Warmup complete CPU 0 instructions: 20000002 cycles: 9213160 cumulative IPC: 2.171 (Simulation time: 00 hr 01 min 54 sec)
Heartbeat CPU 0 instructions: 30000005 cycles: 38488038 heartbeat IPC: 0.3416 cumulative IPC: 0.3416 (Simulation time: 00 hr 04 min 19 sec)
Heartbeat CPU 0 instructions: 40000005 cycles: 67523320 heartbeat IPC: 0.3444 cumulative IPC: 0.343 (Simulation time: 00 hr 06 min 42 sec)
Heartbeat CPU 0 instructions: 50000007 cycles: 96986034 heartbeat IPC: 0.3394 cumulative IPC: 0.3418 (Simulation time: 00 hr 09 min 04 sec)
Heartbeat CPU 0 instructions: 60000007 cycles: 126277907 heartbeat IPC: 0.3414 cumulative IPC: 0.3417 (Simulation time: 00 hr 11 min 24 sec)
Simulation finished CPU 0 instructions: 50000002 cycles: 146794352 cumulative IPC: 0.3406 (Simulation time: 00 hr 13 min 47 sec)
Simulation complete CPU 0 instructions: 50000002 cycles: 146794352 cumulative IPC: 0.3406 (Simulation time: 00 hr 13 min 47 sec)

ChampSim completed all CPUs

=== Simulation ===
CPU 0 runs traces/605.mcf_s-1152B.champsimtrace.xz

Region of Interest Statistics

CPU 0 cumulative IPC: 0.3406 instructions: 50000002 cycles: 146794352
CPU 0 Branch Prediction Accuracy: 90.19% MPKI: 24.48 Average ROB Occupancy at Mispredict: 21.4
Branch type MPKI
BRANCH_DIRECT_JUMP: 0.2057
BRANCH_INDIRECT: 0
BRANCH_CONDITIONAL: 24.27
BRANCH_DIRECT_CALL: 0
BRANCH_INDIRECT_CALL: 0.0036
BRANCH_RETURN: 2e-05

cpu0->cpu0_STLB TOTAL        ACCESS:    1006126 HIT:    1000369 MISS:       5757 MSHR_MERGE:          0
cpu0->cpu0_STLB LOAD         ACCESS:    1006126 HIT:    1000369 MISS:       5757 MSHR_MERGE:          0
cpu0->cpu0_STLB RFO          ACCESS:          0 HIT:          0 MISS:          0 MSHR_MERGE:          0
cpu0->cpu0_STLB PREFETCH     ACCESS:          0 HIT:          0 MISS:          0 MSHR_MERGE:          0
cpu0->cpu0_STLB WRITE        ACCESS:          0 HIT:          0 MISS:          0 MSHR_MERGE:          0
cpu0->cpu0_STLB TRANSLATION  ACCESS:          0 HIT:          0 MISS:          0 MSHR_MERGE:          0
cpu0->cpu0_STLB PREFETCH REQUESTED:          0 ISSUED:          0 USEFUL:          0 USELESS:          0
cpu0->cpu0_STLB AVERAGE MISS LATENCY: 630.2 cycles
cpu0->cpu0_L2C TOTAL        ACCESS:    9331011 HIT:    3201835 MISS:    6129176 MSHR_MERGE:     281457
cpu0->cpu0_L2C LOAD         ACCESS:    2552733 HIT:    1120959 MISS:    1431774 MSHR_MERGE:      22889
cpu0->cpu0_L2C RFO          ACCESS:     187385 HIT:      25426 MISS:     161959 MSHR_MERGE:         98
cpu0->cpu0_L2C PREFETCH     ACCESS:    6316797 HIT:    1789860 MISS:    4526937 MSHR_MERGE:     258470
cpu0->cpu0_L2C WRITE        ACCESS:     265745 HIT:     264145 MISS:       1600 MSHR_MERGE:          0
cpu0->cpu0_L2C TRANSLATION  ACCESS:       8351 HIT:       1445 MISS:       6906 MSHR_MERGE:          0
cpu0->cpu0_L2C PREFETCH REQUESTED:    6319461 ISSUED:    6316797 USEFUL:     832740 USELESS:    3409701
cpu0->cpu0_L2C AVERAGE MISS LATENCY: 55.64 cycles
cpu0->cpu0_L1I TOTAL        ACCESS:     435697 HIT:     435697 MISS:          0 MSHR_MERGE:          0
cpu0->cpu0_L1I LOAD         ACCESS:     435697 HIT:     435697 MISS:          0 MSHR_MERGE:          0
cpu0->cpu0_L1I RFO          ACCESS:          0 HIT:          0 MISS:          0 MSHR_MERGE:          0
cpu0->cpu0_L1I PREFETCH     ACCESS:          0 HIT:          0 MISS:          0 MSHR_MERGE:          0
cpu0->cpu0_L1I WRITE        ACCESS:          0 HIT:          0 MISS:          0 MSHR_MERGE:          0
cpu0->cpu0_L1I TRANSLATION  ACCESS:          0 HIT:          0 MISS:          0 MSHR_MERGE:          0
cpu0->cpu0_L1I PREFETCH REQUESTED:          0 ISSUED:          0 USEFUL:          0 USELESS:          0
cpu0->cpu0_L1I AVERAGE MISS LATENCY: - cycles
cpu0->cpu0_L1D TOTAL        ACCESS:   17980045 HIT:   14380382 MISS:    3599663 MSHR_MERGE:     851190
cpu0->cpu0_L1D LOAD         ACCESS:   12804048 HIT:    9728186 MISS:    3075862 MSHR_MERGE:     523129
cpu0->cpu0_L1D RFO          ACCESS:          0 HIT:          0 MISS:          0 MSHR_MERGE:          0
cpu0->cpu0_L1D PREFETCH     ACCESS:          0 HIT:          0 MISS:          0 MSHR_MERGE:          0
cpu0->cpu0_L1D WRITE        ACCESS:    5164387 HIT:    4648937 MISS:     515450 MSHR_MERGE:     328061
cpu0->cpu0_L1D TRANSLATION  ACCESS:      11610 HIT:       3259 MISS:       8351 MSHR_MERGE:          0
cpu0->cpu0_L1D PREFETCH REQUESTED:          0 ISSUED:          0 USEFUL:          0 USELESS:          0
cpu0->cpu0_L1D AVERAGE MISS LATENCY: 41.03 cycles
cpu0->cpu0_ITLB TOTAL        ACCESS:     403902 HIT:     403902 MISS:          0 MSHR_MERGE:          0
cpu0->cpu0_ITLB LOAD         ACCESS:     403902 HIT:     403902 MISS:          0 MSHR_MERGE:          0
cpu0->cpu0_ITLB RFO          ACCESS:          0 HIT:          0 MISS:          0 MSHR_MERGE:          0
cpu0->cpu0_ITLB PREFETCH     ACCESS:          0 HIT:          0 MISS:          0 MSHR_MERGE:          0
cpu0->cpu0_ITLB WRITE        ACCESS:          0 HIT:          0 MISS:          0 MSHR_MERGE:          0
cpu0->cpu0_ITLB TRANSLATION  ACCESS:          0 HIT:          0 MISS:          0 MSHR_MERGE:          0
cpu0->cpu0_ITLB PREFETCH REQUESTED:          0 ISSUED:          0 USEFUL:          0 USELESS:          0
cpu0->cpu0_ITLB AVERAGE MISS LATENCY: - cycles
cpu0->cpu0_DTLB TOTAL        ACCESS:   16839056 HIT:   15644680 MISS:    1194376 MSHR_MERGE:     188250
cpu0->cpu0_DTLB LOAD         ACCESS:   16839056 HIT:   15644680 MISS:    1194376 MSHR_MERGE:     188250
cpu0->cpu0_DTLB RFO          ACCESS:          0 HIT:          0 MISS:          0 MSHR_MERGE:          0
cpu0->cpu0_DTLB PREFETCH     ACCESS:          0 HIT:          0 MISS:          0 MSHR_MERGE:          0
cpu0->cpu0_DTLB WRITE        ACCESS:          0 HIT:          0 MISS:          0 MSHR_MERGE:          0
cpu0->cpu0_DTLB TRANSLATION  ACCESS:          0 HIT:          0 MISS:          0 MSHR_MERGE:          0
cpu0->cpu0_DTLB PREFETCH REQUESTED:          0 ISSUED:          0 USEFUL:          0 USELESS:          0
cpu0->cpu0_DTLB AVERAGE MISS LATENCY: 7.612 cycles
cpu0->LLC TOTAL        ACCESS:    6066525 HIT:    3679595 MISS:    2386930 MSHR_MERGE:       1458
cpu0->LLC LOAD         ACCESS:    1408884 HIT:    1039183 MISS:     369701 MSHR_MERGE:         25
cpu0->LLC RFO          ACCESS:     161861 HIT:     145373 MISS:      16488 MSHR_MERGE:          0
cpu0->LLC PREFETCH     ACCESS:    4268466 HIT:    2291932 MISS:    1976534 MSHR_MERGE:       1433
cpu0->LLC WRITE        ACCESS:     220408 HIT:     203067 MISS:      17341 MSHR_MERGE:          0
cpu0->LLC TRANSLATION  ACCESS:       6906 HIT:         40 MISS:       6866 MSHR_MERGE:          0
cpu0->LLC PREFETCH REQUESTED:          0 ISSUED:          0 USEFUL:          0 USELESS:          0
cpu0->LLC AVERAGE MISS LATENCY: 149.8 cycles

DRAM Statistics

Channel 0 RQ ROW_BUFFER_HIT:      85812
  ROW_BUFFER_MISS:    2282103
  AVG DBUS CONGESTED CYCLE: 13.23
Channel 0 WQ ROW_BUFFER_HIT:       6721
  ROW_BUFFER_MISS:      21037
  FULL:          0
Channel 0 REFRESHES ISSUED:      12233
