[VMEM] WARNING: physical memory size is smaller than virtual memory size.
WARNING: option --warmup_instructions is deprecated. Use --warmup-instructions instead.
WARNING: option --simulation_instructions is deprecated. Use --simulation-instructions instead.

*** ChampSim Multicore Out-of-Order Simulator ***
Warmup Instructions: 20000000
Simulation Instructions: 50000000
Number of CPUs: 1
Page size: 8192

Off-chip DRAM Size: 16 GiB Channels: 1 Width: 64-bit Data Rate: 3205 MT/s
Heartbeat CPU 0 instructions: 10000002 cycles: 6988530 heartbeat IPC: 1.431 cumulative IPC: 1.431 (Simulation time: 00 hr 01 min 13 sec)
Warmup finished CPU 0 instructions: 20000001 cycles: 11064508 cumulative IPC: 1.808 (Simulation time: 00 hr 02 min 08 sec)
Warmup complete CPU 0 instructions: 20000001 cycles: 11064508 cumulative IPC: 1.808 (Simulation time: 00 hr 02 min 08 sec)
Heartbeat CPU 0 instructions: 20000005 cycles: 11064509 heartbeat IPC: 2.453 cumulative IPC: 4 (Simulation time: 00 hr 02 min 08 sec)
Heartbeat CPU 0 instructions: 30000005 cycles: 57796022 heartbeat IPC: 0.214 cumulative IPC: 0.214 (Simulation time: 00 hr 06 min 09 sec)
Heartbeat CPU 0 instructions: 40000005 cycles: 104853941 heartbeat IPC: 0.2125 cumulative IPC: 0.2132 (Simulation time: 00 hr 10 min 18 sec)
Heartbeat CPU 0 instructions: 50000006 cycles: 151929385 heartbeat IPC: 0.2124 cumulative IPC: 0.213 (Simulation time: 00 hr 14 min 26 sec)
Heartbeat CPU 0 instructions: 60000007 cycles: 198209186 heartbeat IPC: 0.2161 cumulative IPC: 0.2137 (Simulation time: 00 hr 18 min 12 sec)
Simulation finished CPU 0 instructions: 50000002 cycles: 234895243 cumulative IPC: 0.2129 (Simulation time: 00 hr 22 min 19 sec)
Simulation complete CPU 0 instructions: 50000002 cycles: 234895243 cumulative IPC: 0.2129 (Simulation time: 00 hr 22 min 19 sec)

ChampSim completed all CPUs

=== Simulation ===
CPU 0 runs traces/473.astar-359B.champsimtrace.xz

Region of Interest Statistics

CPU 0 cumulative IPC: 0.2129 instructions: 50000002 cycles: 234895243
CPU 0 Branch Prediction Accuracy: 93.2% MPKI: 13.43 Average ROB Occupancy at Mispredict: 44.39
Branch type MPKI
BRANCH_DIRECT_JUMP: 0
BRANCH_INDIRECT: 0
BRANCH_CONDITIONAL: 13.42
BRANCH_DIRECT_CALL: 0
BRANCH_INDIRECT_CALL: 0.00054
BRANCH_RETURN: 0

cpu0->cpu0_STLB TOTAL        ACCESS:    1275505 HIT:     889245 MISS:     386260 MSHR_MERGE:          0
cpu0->cpu0_STLB LOAD         ACCESS:    1275505 HIT:     889245 MISS:     386260 MSHR_MERGE:          0
cpu0->cpu0_STLB RFO          ACCESS:          0 HIT:          0 MISS:          0 MSHR_MERGE:          0
cpu0->cpu0_STLB PREFETCH     ACCESS:          0 HIT:          0 MISS:          0 MSHR_MERGE:          0
cpu0->cpu0_STLB WRITE        ACCESS:          0 HIT:          0 MISS:          0 MSHR_MERGE:          0
cpu0->cpu0_STLB TRANSLATION  ACCESS:          0 HIT:          0 MISS:          0 MSHR_MERGE:          0
cpu0->cpu0_STLB PREFETCH REQUESTED:          0 ISSUED:          0 USEFUL:          0 USELESS:          0
cpu0->cpu0_STLB AVERAGE MISS LATENCY: 565 cycles
cpu0->cpu0_L2C TOTAL        ACCESS:    6331042 HIT:    2972681 MISS:    3358361 MSHR_MERGE:     134381
cpu0->cpu0_L2C LOAD         ACCESS:    1775434 HIT:     966813 MISS:     808621 MSHR_MERGE:      22518
cpu0->cpu0_L2C RFO          ACCESS:     767629 HIT:      40727 MISS:     726902 MSHR_MERGE:          0
cpu0->cpu0_L2C PREFETCH     ACCESS:    1969098 HIT:     791004 MISS:    1178094 MSHR_MERGE:     111863
cpu0->cpu0_L2C WRITE        ACCESS:    1168860 HIT:    1168420 MISS:        440 MSHR_MERGE:          0
cpu0->cpu0_L2C TRANSLATION  ACCESS:     650021 HIT:       5717 MISS:     644304 MSHR_MERGE:          0
cpu0->cpu0_L2C PREFETCH REQUESTED:    1969098 ISSUED:    1969098 USEFUL:     349145 USELESS:     718383
cpu0->cpu0_L2C AVERAGE MISS LATENCY: 236.8 cycles
cpu0->cpu0_L1I TOTAL        ACCESS:     840395 HIT:     840388 MISS:          7 MSHR_MERGE:          0
cpu0->cpu0_L1I LOAD         ACCESS:     840395 HIT:     840388 MISS:          7 MSHR_MERGE:          0
cpu0->cpu0_L1I RFO          ACCESS:          0 HIT:          0 MISS:          0 MSHR_MERGE:          0
cpu0->cpu0_L1I PREFETCH     ACCESS:          0 HIT:          0 MISS:          0 MSHR_MERGE:          0
cpu0->cpu0_L1I WRITE        ACCESS:          0 HIT:          0 MISS:          0 MSHR_MERGE:          0
cpu0->cpu0_L1I TRANSLATION  ACCESS:          0 HIT:          0 MISS:          0 MSHR_MERGE:          0
cpu0->cpu0_L1I PREFETCH REQUESTED:          0 ISSUED:          0 USEFUL:          0 USELESS:          0
cpu0->cpu0_L1I AVERAGE MISS LATENCY: 130.7 cycles
cpu0->cpu0_L1D TOTAL        ACCESS:   19821019 HIT:   15982621 MISS:    3838398 MSHR_MERGE:     645318
cpu0->cpu0_L1D LOAD         ACCESS:   12729079 HIT:   10404255 MISS:    2324824 MSHR_MERGE:     549395
cpu0->cpu0_L1D RFO          ACCESS:          0 HIT:          0 MISS:          0 MSHR_MERGE:          0
cpu0->cpu0_L1D PREFETCH     ACCESS:          0 HIT:          0 MISS:          0 MSHR_MERGE:          0
cpu0->cpu0_L1D WRITE        ACCESS:    6314495 HIT:    5546776 MISS:     767719 MSHR_MERGE:         89
cpu0->cpu0_L1D TRANSLATION  ACCESS:     777445 HIT:      31590 MISS:     745855 MSHR_MERGE:      95834
cpu0->cpu0_L1D PREFETCH REQUESTED:          0 ISSUED:          0 USEFUL:          0 USELESS:          0
cpu0->cpu0_L1D AVERAGE MISS LATENCY: 170.5 cycles
cpu0->cpu0_ITLB TOTAL        ACCESS:     838093 HIT:     838093 MISS:          0 MSHR_MERGE:          0
cpu0->cpu0_ITLB LOAD         ACCESS:     838093 HIT:     838093 MISS:          0 MSHR_MERGE:          0
cpu0->cpu0_ITLB RFO          ACCESS:          0 HIT:          0 MISS:          0 MSHR_MERGE:          0
cpu0->cpu0_ITLB PREFETCH     ACCESS:          0 HIT:          0 MISS:          0 MSHR_MERGE:          0
cpu0->cpu0_ITLB WRITE        ACCESS:          0 HIT:          0 MISS:          0 MSHR_MERGE:          0
cpu0->cpu0_ITLB TRANSLATION  ACCESS:          0 HIT:          0 MISS:          0 MSHR_MERGE:          0
cpu0->cpu0_ITLB PREFETCH REQUESTED:          0 ISSUED:          0 USEFUL:          0 USELESS:          0
cpu0->cpu0_ITLB AVERAGE MISS LATENCY: - cycles
cpu0->cpu0_DTLB TOTAL        ACCESS:   18120829 HIT:   16235591 MISS:    1885238 MSHR_MERGE:     609733
cpu0->cpu0_DTLB LOAD         ACCESS:   18120829 HIT:   16235591 MISS:    1885238 MSHR_MERGE:     609733
cpu0->cpu0_DTLB RFO          ACCESS:          0 HIT:          0 MISS:          0 MSHR_MERGE:          0
cpu0->cpu0_DTLB PREFETCH     ACCESS:          0 HIT:          0 MISS:          0 MSHR_MERGE:          0
cpu0->cpu0_DTLB WRITE        ACCESS:          0 HIT:          0 MISS:          0 MSHR_MERGE:          0
cpu0->cpu0_DTLB TRANSLATION  ACCESS:          0 HIT:          0 MISS:          0 MSHR_MERGE:          0
cpu0->cpu0_DTLB PREFETCH REQUESTED:          0 ISSUED:          0 USEFUL:          0 USELESS:          0
cpu0->cpu0_DTLB AVERAGE MISS LATENCY: 175.4 cycles
cpu0->LLC TOTAL        ACCESS:    4353176 HIT:    1072902 MISS:    3280274 MSHR_MERGE:          0
cpu0->LLC LOAD         ACCESS:     786102 HIT:     245698 MISS:     540404 MSHR_MERGE:          0
cpu0->LLC RFO          ACCESS:     726900 HIT:     227567 MISS:     499333 MSHR_MERGE:          0
cpu0->LLC PREFETCH     ACCESS:    1066230 HIT:     103913 MISS:     962317 MSHR_MERGE:          0
cpu0->LLC WRITE        ACCESS:    1129640 HIT:     427067 MISS:     702573 MSHR_MERGE:          0
cpu0->LLC TRANSLATION  ACCESS:     644304 HIT:      68657 MISS:     575647 MSHR_MERGE:          0
cpu0->LLC PREFETCH REQUESTED:          0 ISSUED:          0 USEFUL:          0 USELESS:          0
cpu0->LLC AVERAGE MISS LATENCY: 208.3 cycles

DRAM Statistics

Channel 0 RQ ROW_BUFFER_HIT:      67219
  ROW_BUFFER_MISS:    2508400
  AVG DBUS CONGESTED CYCLE: 19.03
Channel 0 WQ ROW_BUFFER_HIT:     127165
  ROW_BUFFER_MISS:     629325
  FULL:         15
Channel 0 REFRESHES ISSUED:      19574
