[VMEM] WARNING: physical memory size is smaller than virtual memory size.
WARNING: option --warmup_instructions is deprecated. Use --warmup-instructions instead.
WARNING: option --simulation_instructions is deprecated. Use --simulation-instructions instead.

*** ChampSim Multicore Out-of-Order Simulator ***
Warmup Instructions: 20000000
Simulation Instructions: 50000000
Number of CPUs: 1
Page size: 8192

Off-chip DRAM Size: 16 GiB Channels: 1 Width: 64-bit Data Rate: 3205 MT/s
Heartbeat CPU 0 instructions: 10000003 cycles: 6081535 heartbeat IPC: 1.644 cumulative IPC: 1.644 (Simulation time: 00 hr 02 min 11 sec)
Warmup finished CPU 0 instructions: 20000001 cycles: 12011744 cumulative IPC: 1.665 (Simulation time: 00 hr 04 min 39 sec)
Warmup complete CPU 0 instructions: 20000001 cycles: 12011744 cumulative IPC: 1.665 (Simulation time: 00 hr 04 min 39 sec)
Heartbeat CPU 0 instructions: 20000005 cycles: 12011745 heartbeat IPC: 1.686 cumulative IPC: 4 (Simulation time: 00 hr 04 min 39 sec)
Heartbeat CPU 0 instructions: 30000007 cycles: 29451923 heartbeat IPC: 0.5734 cumulative IPC: 0.5734 (Simulation time: 00 hr 09 min 35 sec)
Heartbeat CPU 0 instructions: 40000008 cycles: 38700772 heartbeat IPC: 1.081 cumulative IPC: 0.7494 (Simulation time: 00 hr 12 min 31 sec)
Heartbeat CPU 0 instructions: 50000008 cycles: 52085490 heartbeat IPC: 0.7471 cumulative IPC: 0.7486 (Simulation time: 00 hr 16 min 26 sec)
Heartbeat CPU 0 instructions: 60000010 cycles: 73136026 heartbeat IPC: 0.475 cumulative IPC: 0.6544 (Simulation time: 00 hr 22 min 00 sec)
Simulation finished CPU 0 instructions: 50000001 cycles: 73932675 cumulative IPC: 0.6763 (Simulation time: 00 hr 25 min 37 sec)
Simulation complete CPU 0 instructions: 50000001 cycles: 73932675 cumulative IPC: 0.6763 (Simulation time: 00 hr 25 min 37 sec)

ChampSim completed all CPUs

=== Simulation ===
CPU 0 runs traces/A2/429.mcf-217B.champsimtrace.xz

Region of Interest Statistics

CPU 0 cumulative IPC: 0.6763 instructions: 50000001 cycles: 73932675
CPU 0 Branch Prediction Accuracy: 98.95% MPKI: 1.194 Average ROB Occupancy at Mispredict: 120.8
Branch type MPKI
BRANCH_DIRECT_JUMP: 0
BRANCH_INDIRECT: 0
BRANCH_CONDITIONAL: 1.194
BRANCH_DIRECT_CALL: 0
BRANCH_INDIRECT_CALL: 0
BRANCH_RETURN: 0

cpu0->cpu0_STLB TOTAL        ACCESS:      58028 HIT:      56178 MISS:       1850 MSHR_MERGE:          0
cpu0->cpu0_STLB LOAD         ACCESS:      58028 HIT:      56178 MISS:       1850 MSHR_MERGE:          0
cpu0->cpu0_STLB RFO          ACCESS:          0 HIT:          0 MISS:          0 MSHR_MERGE:          0
cpu0->cpu0_STLB PREFETCH     ACCESS:          0 HIT:          0 MISS:          0 MSHR_MERGE:          0
cpu0->cpu0_STLB WRITE        ACCESS:          0 HIT:          0 MISS:          0 MSHR_MERGE:          0
cpu0->cpu0_STLB TRANSLATION  ACCESS:          0 HIT:          0 MISS:          0 MSHR_MERGE:          0
cpu0->cpu0_STLB PREFETCH REQUESTED:          0 ISSUED:          0 USEFUL:          0 USELESS:          0
cpu0->cpu0_STLB AVERAGE MISS LATENCY: 585.6 cycles
cpu0->cpu0_L2C TOTAL        ACCESS:    7512347 HIT:    3974801 MISS:    3537546 MSHR_MERGE:     777131
cpu0->cpu0_L2C LOAD         ACCESS:    2598441 HIT:    1777122 MISS:     821319 MSHR_MERGE:      76119
cpu0->cpu0_L2C RFO          ACCESS:       1567 HIT:       1355 MISS:        212 MSHR_MERGE:          0
cpu0->cpu0_L2C PREFETCH     ACCESS:    4812734 HIT:    2100490 MISS:    2712244 MSHR_MERGE:     701012
cpu0->cpu0_L2C WRITE        ACCESS:      96215 HIT:      95338 MISS:        877 MSHR_MERGE:          0
cpu0->cpu0_L2C TRANSLATION  ACCESS:       3390 HIT:        496 MISS:       2894 MSHR_MERGE:          0
cpu0->cpu0_L2C PREFETCH REQUESTED:    4812772 ISSUED:    4812732 USEFUL:    1833549 USELESS:      82408
cpu0->cpu0_L2C AVERAGE MISS LATENCY: 76.67 cycles
cpu0->cpu0_L1I TOTAL        ACCESS:    9223258 HIT:    9223258 MISS:          0 MSHR_MERGE:          0
cpu0->cpu0_L1I LOAD         ACCESS:    9223258 HIT:    9223258 MISS:          0 MSHR_MERGE:          0
cpu0->cpu0_L1I RFO          ACCESS:          0 HIT:          0 MISS:          0 MSHR_MERGE:          0
cpu0->cpu0_L1I PREFETCH     ACCESS:          0 HIT:          0 MISS:          0 MSHR_MERGE:          0
cpu0->cpu0_L1I WRITE        ACCESS:          0 HIT:          0 MISS:          0 MSHR_MERGE:          0
cpu0->cpu0_L1I TRANSLATION  ACCESS:          0 HIT:          0 MISS:          0 MSHR_MERGE:          0
cpu0->cpu0_L1I PREFETCH REQUESTED:          0 ISSUED:          0 USEFUL:          0 USELESS:          0
cpu0->cpu0_L1I AVERAGE MISS LATENCY: - cycles
cpu0->cpu0_L1D TOTAL        ACCESS:   16526701 HIT:   13608256 MISS:    2918445 MSHR_MERGE:     315016
cpu0->cpu0_L1D LOAD         ACCESS:    8631438 HIT:    5720146 MISS:    2911292 MSHR_MERGE:     312820
cpu0->cpu0_L1D RFO          ACCESS:          0 HIT:          0 MISS:          0 MSHR_MERGE:          0
cpu0->cpu0_L1D PREFETCH     ACCESS:          0 HIT:          0 MISS:          0 MSHR_MERGE:          0
cpu0->cpu0_L1D WRITE        ACCESS:    7891556 HIT:    7887793 MISS:       3763 MSHR_MERGE:       2196
cpu0->cpu0_L1D TRANSLATION  ACCESS:       3707 HIT:        317 MISS:       3390 MSHR_MERGE:          0
cpu0->cpu0_L1D PREFETCH REQUESTED:          0 ISSUED:          0 USEFUL:          0 USELESS:          0
cpu0->cpu0_L1D AVERAGE MISS LATENCY: 32.62 cycles
cpu0->cpu0_ITLB TOTAL        ACCESS:    8049605 HIT:    8049605 MISS:          0 MSHR_MERGE:          0
cpu0->cpu0_ITLB LOAD         ACCESS:    8049605 HIT:    8049605 MISS:          0 MSHR_MERGE:          0
cpu0->cpu0_ITLB RFO          ACCESS:          0 HIT:          0 MISS:          0 MSHR_MERGE:          0
cpu0->cpu0_ITLB PREFETCH     ACCESS:          0 HIT:          0 MISS:          0 MSHR_MERGE:          0
cpu0->cpu0_ITLB WRITE        ACCESS:          0 HIT:          0 MISS:          0 MSHR_MERGE:          0
cpu0->cpu0_ITLB TRANSLATION  ACCESS:          0 HIT:          0 MISS:          0 MSHR_MERGE:          0
cpu0->cpu0_ITLB PREFETCH REQUESTED:          0 ISSUED:          0 USEFUL:          0 USELESS:          0
cpu0->cpu0_ITLB AVERAGE MISS LATENCY: - cycles
cpu0->cpu0_DTLB TOTAL        ACCESS:   15023812 HIT:   14949737 MISS:      74075 MSHR_MERGE:      16047
cpu0->cpu0_DTLB LOAD         ACCESS:   15023812 HIT:   14949737 MISS:      74075 MSHR_MERGE:      16047
cpu0->cpu0_DTLB RFO          ACCESS:          0 HIT:          0 MISS:          0 MSHR_MERGE:          0
cpu0->cpu0_DTLB PREFETCH     ACCESS:          0 HIT:          0 MISS:          0 MSHR_MERGE:          0
cpu0->cpu0_DTLB WRITE        ACCESS:          0 HIT:          0 MISS:          0 MSHR_MERGE:          0
cpu0->cpu0_DTLB TRANSLATION  ACCESS:          0 HIT:          0 MISS:          0 MSHR_MERGE:          0
cpu0->cpu0_DTLB PREFETCH REQUESTED:          0 ISSUED:          0 USEFUL:          0 USELESS:          0
cpu0->cpu0_DTLB AVERAGE MISS LATENCY: 22.7 cycles
cpu0->LLC TOTAL        ACCESS:    2840204 HIT:     973378 MISS:    1866826 MSHR_MERGE:       8834
cpu0->LLC LOAD         ACCESS:     745200 HIT:     219000 MISS:     526200 MSHR_MERGE:        636
cpu0->LLC RFO          ACCESS:        212 HIT:        154 MISS:         58 MSHR_MERGE:          0
cpu0->LLC PREFETCH     ACCESS:    2011232 HIT:     733250 MISS:    1277982 MSHR_MERGE:       8198
cpu0->LLC WRITE        ACCESS:      80666 HIT:      20965 MISS:      59701 MSHR_MERGE:          0
cpu0->LLC TRANSLATION  ACCESS:       2894 HIT:          9 MISS:       2885 MSHR_MERGE:          0
cpu0->LLC PREFETCH REQUESTED:          0 ISSUED:          0 USEFUL:          0 USELESS:          0
cpu0->LLC AVERAGE MISS LATENCY: 82.23 cycles

DRAM Statistics

Channel 0 RQ ROW_BUFFER_HIT:     238469
  ROW_BUFFER_MISS:    1559749
  AVG DBUS CONGESTED CYCLE: 6.445
Channel 0 WQ ROW_BUFFER_HIT:      12315
  ROW_BUFFER_MISS:      69006
  FULL:          0
Channel 0 REFRESHES ISSUED:       6162
