[VMEM] WARNING: physical memory size is smaller than virtual memory size.

*** ChampSim Multicore Out-of-Order Simulator ***
Warmup Instructions: 100000000
Simulation Instructions: 500000000
Number of CPUs: 1
Page size: 4096

Off-chip DRAM Size: 16 GiB Channels: 1 Width: 64-bit Data Rate: 3205 MT/s
Heartbeat CPU 0 instructions: 10000001 cycles: 2965458 heartbeat IPC: 3.372 cumulative IPC: 3.372 (Simulation time: 00 hr 01 min 14 sec)
Heartbeat CPU 0 instructions: 20000002 cycles: 5929295 heartbeat IPC: 3.374 cumulative IPC: 3.373 (Simulation time: 00 hr 02 min 39 sec)
Heartbeat CPU 0 instructions: 30000002 cycles: 8887893 heartbeat IPC: 3.38 cumulative IPC: 3.375 (Simulation time: 00 hr 04 min 05 sec)
Heartbeat CPU 0 instructions: 40000002 cycles: 11838066 heartbeat IPC: 3.39 cumulative IPC: 3.379 (Simulation time: 00 hr 05 min 31 sec)
Heartbeat CPU 0 instructions: 50000003 cycles: 14798235 heartbeat IPC: 3.378 cumulative IPC: 3.379 (Simulation time: 00 hr 06 min 54 sec)
Heartbeat CPU 0 instructions: 60000006 cycles: 17684276 heartbeat IPC: 3.465 cumulative IPC: 3.393 (Simulation time: 00 hr 08 min 21 sec)
Heartbeat CPU 0 instructions: 70000006 cycles: 20519969 heartbeat IPC: 3.526 cumulative IPC: 3.411 (Simulation time: 00 hr 09 min 56 sec)
Heartbeat CPU 0 instructions: 80000006 cycles: 23355636 heartbeat IPC: 3.527 cumulative IPC: 3.425 (Simulation time: 00 hr 11 min 28 sec)
Heartbeat CPU 0 instructions: 90000007 cycles: 26192649 heartbeat IPC: 3.525 cumulative IPC: 3.436 (Simulation time: 00 hr 12 min 58 sec)
Warmup finished CPU 0 instructions: 100000003 cycles: 29029180 cumulative IPC: 3.445 (Simulation time: 00 hr 14 min 23 sec)
Warmup complete CPU 0 instructions: 100000003 cycles: 29029180 cumulative IPC: 3.445 (Simulation time: 00 hr 14 min 23 sec)
Heartbeat CPU 0 instructions: 100000008 cycles: 29029181 heartbeat IPC: 3.525 cumulative IPC: 5 (Simulation time: 00 hr 14 min 23 sec)
Heartbeat CPU 0 instructions: 110000009 cycles: 36433790 heartbeat IPC: 1.351 cumulative IPC: 1.351 (Simulation time: 00 hr 16 min 48 sec)
Heartbeat CPU 0 instructions: 120000010 cycles: 43795389 heartbeat IPC: 1.358 cumulative IPC: 1.354 (Simulation time: 00 hr 19 min 22 sec)
Heartbeat CPU 0 instructions: 130000012 cycles: 51172959 heartbeat IPC: 1.355 cumulative IPC: 1.355 (Simulation time: 00 hr 21 min 50 sec)
Heartbeat CPU 0 instructions: 140000012 cycles: 58522127 heartbeat IPC: 1.361 cumulative IPC: 1.356 (Simulation time: 00 hr 24 min 17 sec)
Heartbeat CPU 0 instructions: 150000014 cycles: 65957635 heartbeat IPC: 1.345 cumulative IPC: 1.354 (Simulation time: 00 hr 26 min 43 sec)
Heartbeat CPU 0 instructions: 160000014 cycles: 73208930 heartbeat IPC: 1.379 cumulative IPC: 1.358 (Simulation time: 00 hr 29 min 09 sec)
Heartbeat CPU 0 instructions: 170000015 cycles: 80384876 heartbeat IPC: 1.394 cumulative IPC: 1.363 (Simulation time: 00 hr 31 min 33 sec)
Heartbeat CPU 0 instructions: 180000019 cycles: 87547555 heartbeat IPC: 1.396 cumulative IPC: 1.367 (Simulation time: 00 hr 33 min 58 sec)
Heartbeat CPU 0 instructions: 190000020 cycles: 94711994 heartbeat IPC: 1.396 cumulative IPC: 1.37 (Simulation time: 00 hr 36 min 21 sec)
Heartbeat CPU 0 instructions: 200000021 cycles: 101891133 heartbeat IPC: 1.393 cumulative IPC: 1.372 (Simulation time: 00 hr 38 min 46 sec)
Heartbeat CPU 0 instructions: 210000023 cycles: 109025297 heartbeat IPC: 1.402 cumulative IPC: 1.375 (Simulation time: 00 hr 41 min 09 sec)
Heartbeat CPU 0 instructions: 220000023 cycles: 116266488 heartbeat IPC: 1.381 cumulative IPC: 1.376 (Simulation time: 00 hr 43 min 34 sec)
Heartbeat CPU 0 instructions: 230000027 cycles: 123482409 heartbeat IPC: 1.386 cumulative IPC: 1.376 (Simulation time: 00 hr 45 min 59 sec)
Heartbeat CPU 0 instructions: 240000029 cycles: 130804762 heartbeat IPC: 1.366 cumulative IPC: 1.376 (Simulation time: 00 hr 48 min 24 sec)
Heartbeat CPU 0 instructions: 250000030 cycles: 137980859 heartbeat IPC: 1.394 cumulative IPC: 1.377 (Simulation time: 00 hr 50 min 48 sec)
Heartbeat CPU 0 instructions: 260000033 cycles: 145160486 heartbeat IPC: 1.393 cumulative IPC: 1.378 (Simulation time: 00 hr 53 min 10 sec)
Heartbeat CPU 0 instructions: 270000036 cycles: 152396008 heartbeat IPC: 1.382 cumulative IPC: 1.378 (Simulation time: 00 hr 55 min 35 sec)
Heartbeat CPU 0 instructions: 280000036 cycles: 159593588 heartbeat IPC: 1.389 cumulative IPC: 1.379 (Simulation time: 00 hr 57 min 59 sec)
Heartbeat CPU 0 instructions: 290000036 cycles: 166777510 heartbeat IPC: 1.392 cumulative IPC: 1.379 (Simulation time: 01 hr 00 min 25 sec)
Heartbeat CPU 0 instructions: 300000039 cycles: 173936865 heartbeat IPC: 1.397 cumulative IPC: 1.38 (Simulation time: 01 hr 02 min 48 sec)
Heartbeat CPU 0 instructions: 310000040 cycles: 181124130 heartbeat IPC: 1.391 cumulative IPC: 1.381 (Simulation time: 01 hr 05 min 12 sec)
Heartbeat CPU 0 instructions: 320000043 cycles: 188344904 heartbeat IPC: 1.385 cumulative IPC: 1.381 (Simulation time: 01 hr 07 min 37 sec)
Heartbeat CPU 0 instructions: 330000044 cycles: 195580958 heartbeat IPC: 1.382 cumulative IPC: 1.381 (Simulation time: 01 hr 10 min 03 sec)
Heartbeat CPU 0 instructions: 340000046 cycles: 202880408 heartbeat IPC: 1.37 cumulative IPC: 1.38 (Simulation time: 01 hr 12 min 28 sec)
Heartbeat CPU 0 instructions: 350000047 cycles: 210095055 heartbeat IPC: 1.386 cumulative IPC: 1.381 (Simulation time: 01 hr 14 min 54 sec)
Heartbeat CPU 0 instructions: 360000051 cycles: 217293111 heartbeat IPC: 1.389 cumulative IPC: 1.381 (Simulation time: 01 hr 17 min 19 sec)
Heartbeat CPU 0 instructions: 370000053 cycles: 224469276 heartbeat IPC: 1.394 cumulative IPC: 1.381 (Simulation time: 01 hr 19 min 43 sec)
Heartbeat CPU 0 instructions: 380000057 cycles: 231650256 heartbeat IPC: 1.393 cumulative IPC: 1.382 (Simulation time: 01 hr 22 min 08 sec)
Heartbeat CPU 0 instructions: 390000057 cycles: 238875604 heartbeat IPC: 1.384 cumulative IPC: 1.382 (Simulation time: 01 hr 24 min 32 sec)
Heartbeat CPU 0 instructions: 400000057 cycles: 246059277 heartbeat IPC: 1.392 cumulative IPC: 1.382 (Simulation time: 01 hr 26 min 56 sec)
Heartbeat CPU 0 instructions: 410000059 cycles: 253234692 heartbeat IPC: 1.394 cumulative IPC: 1.383 (Simulation time: 01 hr 29 min 21 sec)
Heartbeat CPU 0 instructions: 420000061 cycles: 260430372 heartbeat IPC: 1.39 cumulative IPC: 1.383 (Simulation time: 01 hr 31 min 48 sec)
Heartbeat CPU 0 instructions: 430000064 cycles: 267781623 heartbeat IPC: 1.36 cumulative IPC: 1.382 (Simulation time: 01 hr 34 min 17 sec)
Heartbeat CPU 0 instructions: 440000064 cycles: 274986143 heartbeat IPC: 1.388 cumulative IPC: 1.382 (Simulation time: 01 hr 36 min 44 sec)
Heartbeat CPU 0 instructions: 450000065 cycles: 282210104 heartbeat IPC: 1.384 cumulative IPC: 1.382 (Simulation time: 01 hr 39 min 10 sec)
Heartbeat CPU 0 instructions: 460000066 cycles: 289437994 heartbeat IPC: 1.384 cumulative IPC: 1.382 (Simulation time: 01 hr 41 min 37 sec)
Heartbeat CPU 0 instructions: 470000069 cycles: 296629188 heartbeat IPC: 1.391 cumulative IPC: 1.383 (Simulation time: 01 hr 44 min 01 sec)
Heartbeat CPU 0 instructions: 480000069 cycles: 303856477 heartbeat IPC: 1.384 cumulative IPC: 1.383 (Simulation time: 01 hr 46 min 27 sec)
Heartbeat CPU 0 instructions: 490000069 cycles: 311070298 heartbeat IPC: 1.386 cumulative IPC: 1.383 (Simulation time: 01 hr 48 min 51 sec)
Heartbeat CPU 0 instructions: 500000070 cycles: 318273701 heartbeat IPC: 1.388 cumulative IPC: 1.383 (Simulation time: 01 hr 51 min 15 sec)
Heartbeat CPU 0 instructions: 510000071 cycles: 325466970 heartbeat IPC: 1.39 cumulative IPC: 1.383 (Simulation time: 01 hr 53 min 40 sec)
Heartbeat CPU 0 instructions: 520000071 cycles: 332871920 heartbeat IPC: 1.35 cumulative IPC: 1.382 (Simulation time: 01 hr 56 min 07 sec)
Heartbeat CPU 0 instructions: 530000071 cycles: 340097530 heartbeat IPC: 1.384 cumulative IPC: 1.382 (Simulation time: 01 hr 58 min 32 sec)
Heartbeat CPU 0 instructions: 540000074 cycles: 347333380 heartbeat IPC: 1.382 cumulative IPC: 1.382 (Simulation time: 02 hr 00 min 56 sec)
Heartbeat CPU 0 instructions: 550000076 cycles: 354599872 heartbeat IPC: 1.376 cumulative IPC: 1.382 (Simulation time: 02 hr 03 min 21 sec)
Heartbeat CPU 0 instructions: 560000076 cycles: 361822467 heartbeat IPC: 1.385 cumulative IPC: 1.382 (Simulation time: 02 hr 05 min 46 sec)
Heartbeat CPU 0 instructions: 570000076 cycles: 368982166 heartbeat IPC: 1.397 cumulative IPC: 1.383 (Simulation time: 02 hr 08 min 10 sec)
Heartbeat CPU 0 instructions: 580000076 cycles: 376231325 heartbeat IPC: 1.379 cumulative IPC: 1.382 (Simulation time: 02 hr 10 min 39 sec)
Heartbeat CPU 0 instructions: 590000077 cycles: 383477727 heartbeat IPC: 1.38 cumulative IPC: 1.382 (Simulation time: 02 hr 13 min 09 sec)
Simulation finished CPU 0 instructions: 500000001 cycles: 361663894 cumulative IPC: 1.382 (Simulation time: 02 hr 15 min 38 sec)
Simulation complete CPU 0 instructions: 500000001 cycles: 361663894 cumulative IPC: 1.382 (Simulation time: 02 hr 15 min 38 sec)

ChampSim completed all CPUs

=== Simulation ===
CPU 0 runs traces/T3.xz

Region of Interest Statistics

CPU 0 cumulative IPC: 1.382 instructions: 500000001 cycles: 361663894
CPU 0 Branch Prediction Accuracy: 99.85% MPKI: 0.001804 Average ROB Occupancy at Mispredict: 277.4
Branch type MPKI
BRANCH_DIRECT_JUMP: 2e-06
BRANCH_INDIRECT: 1e-05
BRANCH_CONDITIONAL: 0.001792
BRANCH_DIRECT_CALL: 0
BRANCH_INDIRECT_CALL: 0
BRANCH_RETURN: 0

cpu0->cpu0_STLB TOTAL        ACCESS:   37705834 HIT:   37644964 MISS:      60870 MSHR_MERGE:          0
cpu0->cpu0_STLB LOAD         ACCESS:   37705834 HIT:   37644964 MISS:      60870 MSHR_MERGE:          0
cpu0->cpu0_STLB RFO          ACCESS:          0 HIT:          0 MISS:          0 MSHR_MERGE:          0
cpu0->cpu0_STLB PREFETCH     ACCESS:          0 HIT:          0 MISS:          0 MSHR_MERGE:          0
cpu0->cpu0_STLB WRITE        ACCESS:          0 HIT:          0 MISS:          0 MSHR_MERGE:          0
cpu0->cpu0_STLB TRANSLATION  ACCESS:          0 HIT:          0 MISS:          0 MSHR_MERGE:          0
cpu0->cpu0_STLB PREFETCH REQUESTED:          0 ISSUED:          0 USEFUL:          0 USELESS:          0
cpu0->cpu0_STLB AVERAGE MISS LATENCY: 545.5 cycles
cpu0->cpu0_L2C TOTAL        ACCESS:   63091852 HIT:   56529556 MISS:    6562296 MSHR_MERGE:          0
cpu0->cpu0_L2C LOAD         ACCESS:   54412849 HIT:   48210819 MISS:    6202030 MSHR_MERGE:          0
cpu0->cpu0_L2C RFO          ACCESS:    4066037 HIT:    3844476 MISS:     221561 MSHR_MERGE:          0
cpu0->cpu0_L2C PREFETCH     ACCESS:          0 HIT:          0 MISS:          0 MSHR_MERGE:          0
cpu0->cpu0_L2C WRITE        ACCESS:    4457907 HIT:    4457897 MISS:         10 MSHR_MERGE:          0
cpu0->cpu0_L2C TRANSLATION  ACCESS:     155059 HIT:      16364 MISS:     138695 MSHR_MERGE:          0
cpu0->cpu0_L2C PREFETCH REQUESTED:          0 ISSUED:          0 USEFUL:          0 USELESS:          0
cpu0->cpu0_L2C AVERAGE MISS LATENCY: 150 cycles
cpu0->cpu0_L1I TOTAL        ACCESS:   97203220 HIT:   97203220 MISS:          0 MSHR_MERGE:          0
cpu0->cpu0_L1I LOAD         ACCESS:   97203220 HIT:   97203220 MISS:          0 MSHR_MERGE:          0
cpu0->cpu0_L1I RFO          ACCESS:          0 HIT:          0 MISS:          0 MSHR_MERGE:          0
cpu0->cpu0_L1I PREFETCH     ACCESS:          0 HIT:          0 MISS:          0 MSHR_MERGE:          0
cpu0->cpu0_L1I WRITE        ACCESS:          0 HIT:          0 MISS:          0 MSHR_MERGE:          0
cpu0->cpu0_L1I TRANSLATION  ACCESS:          0 HIT:          0 MISS:          0 MSHR_MERGE:          0
cpu0->cpu0_L1I PREFETCH REQUESTED:          0 ISSUED:          0 USEFUL:          0 USELESS:          0
cpu0->cpu0_L1I AVERAGE MISS LATENCY: - cycles
cpu0->cpu0_L1D TOTAL        ACCESS:  153928127 HIT:   87100008 MISS:   66828119 MSHR_MERGE:    8060274
cpu0->cpu0_L1D LOAD         ACCESS:   96646525 HIT:   34462810 MISS:   62183715 MSHR_MERGE:    7639545
cpu0->cpu0_L1D RFO          ACCESS:          0 HIT:          0 MISS:          0 MSHR_MERGE:          0
cpu0->cpu0_L1D PREFETCH     ACCESS:          0 HIT:          0 MISS:          0 MSHR_MERGE:          0
cpu0->cpu0_L1D WRITE        ACCESS:   57125862 HIT:   52636685 MISS:    4489177 MSHR_MERGE:     420561
cpu0->cpu0_L1D TRANSLATION  ACCESS:     155740 HIT:        513 MISS:     155227 MSHR_MERGE:        168
cpu0->cpu0_L1D PREFETCH REQUESTED:          0 ISSUED:          0 USEFUL:          0 USELESS:          0
cpu0->cpu0_L1D AVERAGE MISS LATENCY: 25.46 cycles
cpu0->cpu0_ITLB TOTAL        ACCESS:   78267895 HIT:   78267895 MISS:          0 MSHR_MERGE:          0
cpu0->cpu0_ITLB LOAD         ACCESS:   78267895 HIT:   78267895 MISS:          0 MSHR_MERGE:          0
cpu0->cpu0_ITLB RFO          ACCESS:          0 HIT:          0 MISS:          0 MSHR_MERGE:          0
cpu0->cpu0_ITLB PREFETCH     ACCESS:          0 HIT:          0 MISS:          0 MSHR_MERGE:          0
cpu0->cpu0_ITLB WRITE        ACCESS:          0 HIT:          0 MISS:          0 MSHR_MERGE:          0
cpu0->cpu0_ITLB TRANSLATION  ACCESS:          0 HIT:          0 MISS:          0 MSHR_MERGE:          0
cpu0->cpu0_ITLB PREFETCH REQUESTED:          0 ISSUED:          0 USEFUL:          0 USELESS:          0
cpu0->cpu0_ITLB AVERAGE MISS LATENCY: - cycles
cpu0->cpu0_DTLB TOTAL        ACCESS:  142258765 HIT:   91533714 MISS:   50725051 MSHR_MERGE:   13019217
cpu0->cpu0_DTLB LOAD         ACCESS:  142258765 HIT:   91533714 MISS:   50725051 MSHR_MERGE:   13019217
cpu0->cpu0_DTLB RFO          ACCESS:          0 HIT:          0 MISS:          0 MSHR_MERGE:          0
cpu0->cpu0_DTLB PREFETCH     ACCESS:          0 HIT:          0 MISS:          0 MSHR_MERGE:          0
cpu0->cpu0_DTLB WRITE        ACCESS:          0 HIT:          0 MISS:          0 MSHR_MERGE:          0
cpu0->cpu0_DTLB TRANSLATION  ACCESS:          0 HIT:          0 MISS:          0 MSHR_MERGE:          0
cpu0->cpu0_DTLB PREFETCH REQUESTED:          0 ISSUED:          0 USEFUL:          0 USELESS:          0
cpu0->cpu0_DTLB AVERAGE MISS LATENCY: 5.924 cycles
cpu0->LLC TOTAL        ACCESS:    7193937 HIT:    3255900 MISS:    3938037 MSHR_MERGE:          0
cpu0->LLC LOAD         ACCESS:    6202025 HIT:    2358474 MISS:    3843551 MSHR_MERGE:          0
cpu0->LLC RFO          ACCESS:     219792 HIT:     219789 MISS:          3 MSHR_MERGE:          0
cpu0->LLC PREFETCH     ACCESS:          0 HIT:          0 MISS:          0 MSHR_MERGE:          0
cpu0->LLC WRITE        ACCESS:     633425 HIT:     632988 MISS:        437 MSHR_MERGE:          0
cpu0->LLC TRANSLATION  ACCESS:     138695 HIT:      44649 MISS:      94046 MSHR_MERGE:          0
cpu0->LLC PREFETCH REQUESTED:          0 ISSUED:          0 USEFUL:          0 USELESS:          0
cpu0->LLC AVERAGE MISS LATENCY: 223.9 cycles

DRAM Statistics

Channel 0 RQ ROW_BUFFER_HIT:        281
  ROW_BUFFER_MISS:    3937319
  AVG DBUS CONGESTED CYCLE: 5.236
Channel 0 WQ ROW_BUFFER_HIT:      57811
  ROW_BUFFER_MISS:     420674
  FULL:          0
Channel 0 REFRESHES ISSUED:      30138
ADAPTIVE LLC [Tri-Mode Tournament] follower_preferred: LRU
ADAPTIVE LLC misses_lru: 20714 misses_srrip: 21221 misses_ship: 20859
ADAPTIVE LLC total_evictions: 4433925
