[VMEM] WARNING: physical memory size is smaller than virtual memory size.

*** ChampSim Multicore Out-of-Order Simulator ***
Warmup Instructions: 100000000
Simulation Instructions: 500000000
Number of CPUs: 1
Page size: 4096

Off-chip DRAM Size: 16 GiB Channels: 1 Width: 64-bit Data Rate: 3205 MT/s
Heartbeat CPU 0 instructions: 10000000 cycles: 2973819 heartbeat IPC: 3.363 cumulative IPC: 3.363 (Simulation time: 00 hr 01 min 01 sec)
Heartbeat CPU 0 instructions: 20000000 cycles: 5933738 heartbeat IPC: 3.378 cumulative IPC: 3.371 (Simulation time: 00 hr 02 min 11 sec)
Heartbeat CPU 0 instructions: 30000002 cycles: 8894099 heartbeat IPC: 3.378 cumulative IPC: 3.373 (Simulation time: 00 hr 03 min 22 sec)
Heartbeat CPU 0 instructions: 40000004 cycles: 11853245 heartbeat IPC: 3.379 cumulative IPC: 3.375 (Simulation time: 00 hr 04 min 35 sec)
Heartbeat CPU 0 instructions: 50000004 cycles: 14813634 heartbeat IPC: 3.378 cumulative IPC: 3.375 (Simulation time: 00 hr 05 min 47 sec)
Heartbeat CPU 0 instructions: 60000007 cycles: 17772991 heartbeat IPC: 3.379 cumulative IPC: 3.376 (Simulation time: 00 hr 06 min 58 sec)
Heartbeat CPU 0 instructions: 70000007 cycles: 20732318 heartbeat IPC: 3.379 cumulative IPC: 3.376 (Simulation time: 00 hr 08 min 10 sec)
Heartbeat CPU 0 instructions: 80000010 cycles: 23693030 heartbeat IPC: 3.378 cumulative IPC: 3.377 (Simulation time: 00 hr 09 min 29 sec)
Heartbeat CPU 0 instructions: 90000012 cycles: 26652539 heartbeat IPC: 3.379 cumulative IPC: 3.377 (Simulation time: 00 hr 10 min 44 sec)
Warmup finished CPU 0 instructions: 100000000 cycles: 29611877 cumulative IPC: 3.377 (Simulation time: 00 hr 12 min 00 sec)
Warmup complete CPU 0 instructions: 100000000 cycles: 29611877 cumulative IPC: 3.377 (Simulation time: 00 hr 12 min 00 sec)
Heartbeat CPU 0 instructions: 100000015 cycles: 29611880 heartbeat IPC: 3.379 cumulative IPC: 5 (Simulation time: 00 hr 12 min 00 sec)
Heartbeat CPU 0 instructions: 110000016 cycles: 54910483 heartbeat IPC: 0.3953 cumulative IPC: 0.3953 (Simulation time: 00 hr 18 min 26 sec)
Heartbeat CPU 0 instructions: 120000020 cycles: 80226406 heartbeat IPC: 0.395 cumulative IPC: 0.3951 (Simulation time: 00 hr 24 min 48 sec)
Heartbeat CPU 0 instructions: 130000020 cycles: 105504085 heartbeat IPC: 0.3956 cumulative IPC: 0.3953 (Simulation time: 00 hr 31 min 06 sec)
Heartbeat CPU 0 instructions: 140000024 cycles: 130783783 heartbeat IPC: 0.3956 cumulative IPC: 0.3954 (Simulation time: 00 hr 37 min 26 sec)
Heartbeat CPU 0 instructions: 150000024 cycles: 156091947 heartbeat IPC: 0.3951 cumulative IPC: 0.3953 (Simulation time: 00 hr 43 min 44 sec)
Heartbeat CPU 0 instructions: 160000028 cycles: 181388670 heartbeat IPC: 0.3953 cumulative IPC: 0.3953 (Simulation time: 00 hr 50 min 01 sec)
Heartbeat CPU 0 instructions: 170000028 cycles: 206678257 heartbeat IPC: 0.3954 cumulative IPC: 0.3953 (Simulation time: 00 hr 56 min 19 sec)
Heartbeat CPU 0 instructions: 180000031 cycles: 232019606 heartbeat IPC: 0.3946 cumulative IPC: 0.3952 (Simulation time: 01 hr 02 min 40 sec)
Heartbeat CPU 0 instructions: 190000034 cycles: 257344356 heartbeat IPC: 0.3949 cumulative IPC: 0.3952 (Simulation time: 01 hr 09 min 00 sec)
Heartbeat CPU 0 instructions: 200000035 cycles: 282651620 heartbeat IPC: 0.3951 cumulative IPC: 0.3952 (Simulation time: 01 hr 15 min 21 sec)
Heartbeat CPU 0 instructions: 210000038 cycles: 307940678 heartbeat IPC: 0.3954 cumulative IPC: 0.3952 (Simulation time: 01 hr 21 min 42 sec)
Heartbeat CPU 0 instructions: 220000038 cycles: 333216057 heartbeat IPC: 0.3956 cumulative IPC: 0.3953 (Simulation time: 01 hr 28 min 01 sec)
Heartbeat CPU 0 instructions: 230000038 cycles: 358518342 heartbeat IPC: 0.3952 cumulative IPC: 0.3952 (Simulation time: 01 hr 34 min 25 sec)
Heartbeat CPU 0 instructions: 240000042 cycles: 383814152 heartbeat IPC: 0.3953 cumulative IPC: 0.3953 (Simulation time: 01 hr 40 min 50 sec)
Heartbeat CPU 0 instructions: 250000042 cycles: 409149299 heartbeat IPC: 0.3947 cumulative IPC: 0.3952 (Simulation time: 01 hr 47 min 11 sec)
Heartbeat CPU 0 instructions: 260000046 cycles: 434435354 heartbeat IPC: 0.3955 cumulative IPC: 0.3952 (Simulation time: 01 hr 53 min 31 sec)
Heartbeat CPU 0 instructions: 270000046 cycles: 457188545 heartbeat IPC: 0.4395 cumulative IPC: 0.3976 (Simulation time: 01 hr 59 min 13 sec)
Heartbeat CPU 0 instructions: 280000047 cycles: 478325234 heartbeat IPC: 0.4731 cumulative IPC: 0.4011 (Simulation time: 02 hr 04 min 33 sec)
Heartbeat CPU 0 instructions: 290000048 cycles: 503619252 heartbeat IPC: 0.3954 cumulative IPC: 0.4008 (Simulation time: 02 hr 11 min 00 sec)
Heartbeat CPU 0 instructions: 300000052 cycles: 528973092 heartbeat IPC: 0.3944 cumulative IPC: 0.4005 (Simulation time: 02 hr 17 min 33 sec)
Heartbeat CPU 0 instructions: 310000052 cycles: 554309404 heartbeat IPC: 0.3947 cumulative IPC: 0.4002 (Simulation time: 02 hr 24 min 24 sec)
Heartbeat CPU 0 instructions: 320000056 cycles: 579656954 heartbeat IPC: 0.3945 cumulative IPC: 0.4 (Simulation time: 02 hr 30 min 59 sec)
Heartbeat CPU 0 instructions: 330000056 cycles: 604995426 heartbeat IPC: 0.3947 cumulative IPC: 0.3997 (Simulation time: 02 hr 37 min 41 sec)
Heartbeat CPU 0 instructions: 340000060 cycles: 630342734 heartbeat IPC: 0.3945 cumulative IPC: 0.3995 (Simulation time: 02 hr 43 min 57 sec)
Heartbeat CPU 0 instructions: 350000064 cycles: 655674544 heartbeat IPC: 0.3948 cumulative IPC: 0.3993 (Simulation time: 02 hr 50 min 08 sec)
Heartbeat CPU 0 instructions: 360000067 cycles: 681025827 heartbeat IPC: 0.3945 cumulative IPC: 0.3991 (Simulation time: 02 hr 56 min 18 sec)
Heartbeat CPU 0 instructions: 370000068 cycles: 706379659 heartbeat IPC: 0.3944 cumulative IPC: 0.399 (Simulation time: 03 hr 02 min 29 sec)
Heartbeat CPU 0 instructions: 380000070 cycles: 731697928 heartbeat IPC: 0.395 cumulative IPC: 0.3988 (Simulation time: 03 hr 08 min 39 sec)
Heartbeat CPU 0 instructions: 390000072 cycles: 757083346 heartbeat IPC: 0.3939 cumulative IPC: 0.3986 (Simulation time: 03 hr 15 min 43 sec)
Heartbeat CPU 0 instructions: 400000075 cycles: 782458857 heartbeat IPC: 0.3941 cumulative IPC: 0.3985 (Simulation time: 03 hr 22 min 28 sec)
Heartbeat CPU 0 instructions: 410000075 cycles: 807808702 heartbeat IPC: 0.3945 cumulative IPC: 0.3984 (Simulation time: 03 hr 28 min 51 sec)
Heartbeat CPU 0 instructions: 420000079 cycles: 833179239 heartbeat IPC: 0.3942 cumulative IPC: 0.3982 (Simulation time: 03 hr 35 min 02 sec)
Heartbeat CPU 0 instructions: 430000079 cycles: 858550127 heartbeat IPC: 0.3942 cumulative IPC: 0.3981 (Simulation time: 03 hr 41 min 14 sec)
Heartbeat CPU 0 instructions: 440000083 cycles: 883927221 heartbeat IPC: 0.3941 cumulative IPC: 0.398 (Simulation time: 03 hr 47 min 24 sec)
Heartbeat CPU 0 instructions: 450000083 cycles: 909316135 heartbeat IPC: 0.3939 cumulative IPC: 0.3979 (Simulation time: 03 hr 52 min 55 sec)
Heartbeat CPU 0 instructions: 460000085 cycles: 934707131 heartbeat IPC: 0.3938 cumulative IPC: 0.3977 (Simulation time: 03 hr 57 min 54 sec)
Heartbeat CPU 0 instructions: 470000086 cycles: 960117545 heartbeat IPC: 0.3935 cumulative IPC: 0.3976 (Simulation time: 04 hr 02 min 53 sec)
Heartbeat CPU 0 instructions: 480000089 cycles: 985470723 heartbeat IPC: 0.3944 cumulative IPC: 0.3975 (Simulation time: 04 hr 07 min 48 sec)
Heartbeat CPU 0 instructions: 490000090 cycles: 1010821552 heartbeat IPC: 0.3945 cumulative IPC: 0.3975 (Simulation time: 04 hr 12 min 45 sec)
Heartbeat CPU 0 instructions: 500000094 cycles: 1036140672 heartbeat IPC: 0.395 cumulative IPC: 0.3974 (Simulation time: 04 hr 17 min 43 sec)
Heartbeat CPU 0 instructions: 510000098 cycles: 1061520942 heartbeat IPC: 0.394 cumulative IPC: 0.3973 (Simulation time: 04 hr 21 min 58 sec)
Heartbeat CPU 0 instructions: 520000102 cycles: 1086876939 heartbeat IPC: 0.3944 cumulative IPC: 0.3973 (Simulation time: 04 hr 26 min 12 sec)
Heartbeat CPU 0 instructions: 530000102 cycles: 1112259370 heartbeat IPC: 0.394 cumulative IPC: 0.3972 (Simulation time: 04 hr 30 min 27 sec)
Heartbeat CPU 0 instructions: 540000106 cycles: 1137652504 heartbeat IPC: 0.3938 cumulative IPC: 0.3971 (Simulation time: 04 hr 34 min 40 sec)
Heartbeat CPU 0 instructions: 550000106 cycles: 1163070374 heartbeat IPC: 0.3934 cumulative IPC: 0.397 (Simulation time: 04 hr 38 min 54 sec)
Heartbeat CPU 0 instructions: 560000108 cycles: 1188492710 heartbeat IPC: 0.3934 cumulative IPC: 0.3969 (Simulation time: 04 hr 43 min 07 sec)
Heartbeat CPU 0 instructions: 570000109 cycles: 1213928655 heartbeat IPC: 0.3931 cumulative IPC: 0.3969 (Simulation time: 04 hr 47 min 19 sec)
Heartbeat CPU 0 instructions: 580000112 cycles: 1239267133 heartbeat IPC: 0.3947 cumulative IPC: 0.3968 (Simulation time: 04 hr 53 min 50 sec)
Heartbeat CPU 0 instructions: 590000113 cycles: 1264630305 heartbeat IPC: 0.3943 cumulative IPC: 0.3968 (Simulation time: 05 hr 00 min 25 sec)
Simulation finished CPU 0 instructions: 500000003 cycles: 1260403175 cumulative IPC: 0.3967 (Simulation time: 05 hr 07 min 17 sec)
Simulation complete CPU 0 instructions: 500000003 cycles: 1260403175 cumulative IPC: 0.3967 (Simulation time: 05 hr 07 min 17 sec)

ChampSim completed all CPUs

=== Simulation ===
CPU 0 runs traces/T4.xz

Region of Interest Statistics

CPU 0 cumulative IPC: 0.3967 instructions: 500000003 cycles: 1260403175
CPU 0 Branch Prediction Accuracy: 99.63% MPKI: 0.06786 Average ROB Occupancy at Mispredict: 76.51
Branch type MPKI
BRANCH_DIRECT_JUMP: 0.000178
BRANCH_INDIRECT: 0
BRANCH_CONDITIONAL: 0.05161
BRANCH_DIRECT_CALL: 3.2e-05
BRANCH_INDIRECT_CALL: 0
BRANCH_RETURN: 0.01604

cpu0->cpu0_STLB TOTAL        ACCESS:     116434 HIT:      48248 MISS:      68186 MSHR_MERGE:          0
cpu0->cpu0_STLB LOAD         ACCESS:     116434 HIT:      48248 MISS:      68186 MSHR_MERGE:          0
cpu0->cpu0_STLB RFO          ACCESS:          0 HIT:          0 MISS:          0 MSHR_MERGE:          0
cpu0->cpu0_STLB PREFETCH     ACCESS:          0 HIT:          0 MISS:          0 MSHR_MERGE:          0
cpu0->cpu0_STLB WRITE        ACCESS:          0 HIT:          0 MISS:          0 MSHR_MERGE:          0
cpu0->cpu0_STLB TRANSLATION  ACCESS:          0 HIT:          0 MISS:          0 MSHR_MERGE:          0
cpu0->cpu0_STLB PREFETCH REQUESTED:          0 ISSUED:          0 USEFUL:          0 USELESS:          0
cpu0->cpu0_STLB AVERAGE MISS LATENCY: 664.6 cycles
cpu0->cpu0_L2C TOTAL        ACCESS:   11017709 HIT:    6187562 MISS:    4830147 MSHR_MERGE:          0
cpu0->cpu0_L2C LOAD         ACCESS:    6564966 HIT:    1812518 MISS:    4752448 MSHR_MERGE:          0
cpu0->cpu0_L2C RFO          ACCESS:       9630 HIT:       8989 MISS:        641 MSHR_MERGE:          0
cpu0->cpu0_L2C PREFETCH     ACCESS:          0 HIT:          0 MISS:          0 MSHR_MERGE:          0
cpu0->cpu0_L2C WRITE        ACCESS:    4364158 HIT:    4364158 MISS:          0 MSHR_MERGE:          0
cpu0->cpu0_L2C TRANSLATION  ACCESS:      78955 HIT:       1897 MISS:      77058 MSHR_MERGE:          0
cpu0->cpu0_L2C PREFETCH REQUESTED:          0 ISSUED:          0 USEFUL:          0 USELESS:          0
cpu0->cpu0_L2C AVERAGE MISS LATENCY: 218 cycles
cpu0->cpu0_L1I TOTAL        ACCESS:   93119196 HIT:   93118787 MISS:        409 MSHR_MERGE:        132
cpu0->cpu0_L1I LOAD         ACCESS:   93119196 HIT:   93118787 MISS:        409 MSHR_MERGE:        132
cpu0->cpu0_L1I RFO          ACCESS:          0 HIT:          0 MISS:          0 MSHR_MERGE:          0
cpu0->cpu0_L1I PREFETCH     ACCESS:          0 HIT:          0 MISS:          0 MSHR_MERGE:          0
cpu0->cpu0_L1I WRITE        ACCESS:          0 HIT:          0 MISS:          0 MSHR_MERGE:          0
cpu0->cpu0_L1I TRANSLATION  ACCESS:          0 HIT:          0 MISS:          0 MSHR_MERGE:          0
cpu0->cpu0_L1I PREFETCH REQUESTED:          0 ISSUED:          0 USEFUL:          0 USELESS:          0
cpu0->cpu0_L1I AVERAGE MISS LATENCY: 207.3 cycles
cpu0->cpu0_L1D TOTAL        ACCESS:  158372919 HIT:  130255667 MISS:   28117252 MSHR_MERGE:   21463978
cpu0->cpu0_L1D LOAD         ACCESS:  123031973 HIT:   95024254 MISS:   28007719 MSHR_MERGE:   21443030
cpu0->cpu0_L1D RFO          ACCESS:          0 HIT:          0 MISS:          0 MSHR_MERGE:          0
cpu0->cpu0_L1D PREFETCH     ACCESS:          0 HIT:          0 MISS:          0 MSHR_MERGE:          0
cpu0->cpu0_L1D WRITE        ACCESS:   35204338 HIT:   35173761 MISS:      30577 MSHR_MERGE:      20947
cpu0->cpu0_L1D TRANSLATION  ACCESS:     136608 HIT:      57652 MISS:      78956 MSHR_MERGE:          1
cpu0->cpu0_L1D PREFETCH REQUESTED:          0 ISSUED:          0 USEFUL:          0 USELESS:          0
cpu0->cpu0_L1D AVERAGE MISS LATENCY: 167 cycles
cpu0->cpu0_ITLB TOTAL        ACCESS:   75709822 HIT:   75709797 MISS:         25 MSHR_MERGE:         14
cpu0->cpu0_ITLB LOAD         ACCESS:   75709822 HIT:   75709797 MISS:         25 MSHR_MERGE:         14
cpu0->cpu0_ITLB RFO          ACCESS:          0 HIT:          0 MISS:          0 MSHR_MERGE:          0
cpu0->cpu0_ITLB PREFETCH     ACCESS:          0 HIT:          0 MISS:          0 MSHR_MERGE:          0
cpu0->cpu0_ITLB WRITE        ACCESS:          0 HIT:          0 MISS:          0 MSHR_MERGE:          0
cpu0->cpu0_ITLB TRANSLATION  ACCESS:          0 HIT:          0 MISS:          0 MSHR_MERGE:          0
cpu0->cpu0_ITLB PREFETCH REQUESTED:          0 ISSUED:          0 USEFUL:          0 USELESS:          0
cpu0->cpu0_ITLB AVERAGE MISS LATENCY: 842.7 cycles
cpu0->cpu0_DTLB TOTAL        ACCESS:  148324929 HIT:  147886315 MISS:     438614 MSHR_MERGE:     322191
cpu0->cpu0_DTLB LOAD         ACCESS:  148324929 HIT:  147886315 MISS:     438614 MSHR_MERGE:     322191
cpu0->cpu0_DTLB RFO          ACCESS:          0 HIT:          0 MISS:          0 MSHR_MERGE:          0
cpu0->cpu0_DTLB PREFETCH     ACCESS:          0 HIT:          0 MISS:          0 MSHR_MERGE:          0
cpu0->cpu0_DTLB WRITE        ACCESS:          0 HIT:          0 MISS:          0 MSHR_MERGE:          0
cpu0->cpu0_DTLB TRANSLATION  ACCESS:          0 HIT:          0 MISS:          0 MSHR_MERGE:          0
cpu0->cpu0_DTLB PREFETCH REQUESTED:          0 ISSUED:          0 USEFUL:          0 USELESS:          0
cpu0->cpu0_DTLB AVERAGE MISS LATENCY: 394.8 cycles
cpu0->LLC TOTAL        ACCESS:    9185153 HIT:    4728405 MISS:    4456748 MSHR_MERGE:          0
cpu0->LLC LOAD         ACCESS:    4752448 HIT:     382039 MISS:    4370409 MSHR_MERGE:          0
cpu0->LLC RFO          ACCESS:        641 HIT:        623 MISS:         18 MSHR_MERGE:          0
cpu0->LLC PREFETCH     ACCESS:          0 HIT:          0 MISS:          0 MSHR_MERGE:          0
cpu0->LLC WRITE        ACCESS:    4355006 HIT:    4345729 MISS:       9277 MSHR_MERGE:          0
cpu0->LLC TRANSLATION  ACCESS:      77058 HIT:         14 MISS:      77044 MSHR_MERGE:          0
cpu0->LLC PREFETCH REQUESTED:          0 ISSUED:          0 USEFUL:          0 USELESS:          0
cpu0->LLC AVERAGE MISS LATENCY: 219.1 cycles

DRAM Statistics

Channel 0 RQ ROW_BUFFER_HIT:      29815
  ROW_BUFFER_MISS:    4417648
  AVG DBUS CONGESTED CYCLE: 9.766
Channel 0 WQ ROW_BUFFER_HIT:    1752147
  ROW_BUFFER_MISS:    2601782
  FULL:          0
Channel 0 REFRESHES ISSUED:     105034
ADAPTIVE LLC [Tri-Mode Tournament] follower_preferred: SHiP
ADAPTIVE LLC misses_lru: 31328 misses_srrip: 31089 misses_ship: 31019
ADAPTIVE LLC total_evictions: 5333302
