[VMEM] WARNING: physical memory size is smaller than virtual memory size.

*** ChampSim Multicore Out-of-Order Simulator ***
Warmup Instructions: 100000000
Simulation Instructions: 500000000
Number of CPUs: 1
Page size: 4096

Off-chip DRAM Size: 16 GiB Channels: 1 Width: 64-bit Data Rate: 3205 MT/s
Heartbeat CPU 0 instructions: 10000002 cycles: 3193194 heartbeat IPC: 3.132 cumulative IPC: 3.132 (Simulation time: 00 hr 01 min 06 sec)
Heartbeat CPU 0 instructions: 20000002 cycles: 6302184 heartbeat IPC: 3.216 cumulative IPC: 3.174 (Simulation time: 00 hr 02 min 19 sec)
Heartbeat CPU 0 instructions: 30000006 cycles: 9391916 heartbeat IPC: 3.237 cumulative IPC: 3.194 (Simulation time: 00 hr 03 min 35 sec)
Heartbeat CPU 0 instructions: 40000007 cycles: 12495212 heartbeat IPC: 3.222 cumulative IPC: 3.201 (Simulation time: 00 hr 04 min 50 sec)
Heartbeat CPU 0 instructions: 50000010 cycles: 15572494 heartbeat IPC: 3.25 cumulative IPC: 3.211 (Simulation time: 00 hr 06 min 04 sec)
Heartbeat CPU 0 instructions: 60000010 cycles: 18680701 heartbeat IPC: 3.217 cumulative IPC: 3.212 (Simulation time: 00 hr 07 min 18 sec)
Heartbeat CPU 0 instructions: 70000013 cycles: 21766109 heartbeat IPC: 3.241 cumulative IPC: 3.216 (Simulation time: 00 hr 08 min 33 sec)
Heartbeat CPU 0 instructions: 80000016 cycles: 24868137 heartbeat IPC: 3.224 cumulative IPC: 3.217 (Simulation time: 00 hr 09 min 56 sec)
Heartbeat CPU 0 instructions: 90000019 cycles: 27951080 heartbeat IPC: 3.244 cumulative IPC: 3.22 (Simulation time: 00 hr 11 min 14 sec)
Warmup finished CPU 0 instructions: 100000004 cycles: 30941983 cumulative IPC: 3.232 (Simulation time: 00 hr 12 min 30 sec)
Warmup complete CPU 0 instructions: 100000004 cycles: 30941983 cumulative IPC: 3.232 (Simulation time: 00 hr 12 min 30 sec)
Heartbeat CPU 0 instructions: 100000019 cycles: 30941986 heartbeat IPC: 3.343 cumulative IPC: 5 (Simulation time: 00 hr 12 min 30 sec)
Heartbeat CPU 0 instructions: 110000019 cycles: 58134022 heartbeat IPC: 0.3678 cumulative IPC: 0.3678 (Simulation time: 00 hr 16 min 58 sec)
Heartbeat CPU 0 instructions: 120000019 cycles: 84947358 heartbeat IPC: 0.3729 cumulative IPC: 0.3703 (Simulation time: 00 hr 21 min 32 sec)
Heartbeat CPU 0 instructions: 130000019 cycles: 111606213 heartbeat IPC: 0.3751 cumulative IPC: 0.3719 (Simulation time: 00 hr 25 min 56 sec)
Heartbeat CPU 0 instructions: 140000020 cycles: 138933859 heartbeat IPC: 0.3659 cumulative IPC: 0.3704 (Simulation time: 00 hr 30 min 26 sec)
Heartbeat CPU 0 instructions: 150000022 cycles: 165654846 heartbeat IPC: 0.3742 cumulative IPC: 0.3712 (Simulation time: 00 hr 34 min 51 sec)
Heartbeat CPU 0 instructions: 160000023 cycles: 191803499 heartbeat IPC: 0.3824 cumulative IPC: 0.373 (Simulation time: 00 hr 39 min 12 sec)
Heartbeat CPU 0 instructions: 170000025 cycles: 219184877 heartbeat IPC: 0.3652 cumulative IPC: 0.3719 (Simulation time: 00 hr 43 min 43 sec)
Heartbeat CPU 0 instructions: 180000026 cycles: 245337129 heartbeat IPC: 0.3824 cumulative IPC: 0.3731 (Simulation time: 00 hr 48 min 01 sec)
Heartbeat CPU 0 instructions: 190000026 cycles: 272441282 heartbeat IPC: 0.3689 cumulative IPC: 0.3727 (Simulation time: 00 hr 52 min 28 sec)
Heartbeat CPU 0 instructions: 200000028 cycles: 299646851 heartbeat IPC: 0.3676 cumulative IPC: 0.3722 (Simulation time: 00 hr 56 min 55 sec)
Heartbeat CPU 0 instructions: 210000030 cycles: 326727399 heartbeat IPC: 0.3693 cumulative IPC: 0.3719 (Simulation time: 01 hr 01 min 24 sec)
Heartbeat CPU 0 instructions: 220000030 cycles: 352715095 heartbeat IPC: 0.3848 cumulative IPC: 0.3729 (Simulation time: 01 hr 05 min 41 sec)
Heartbeat CPU 0 instructions: 230000030 cycles: 380428939 heartbeat IPC: 0.3608 cumulative IPC: 0.372 (Simulation time: 01 hr 10 min 14 sec)
Heartbeat CPU 0 instructions: 240000033 cycles: 405326173 heartbeat IPC: 0.4017 cumulative IPC: 0.3739 (Simulation time: 01 hr 14 min 25 sec)
Heartbeat CPU 0 instructions: 250000036 cycles: 431081059 heartbeat IPC: 0.3883 cumulative IPC: 0.3749 (Simulation time: 01 hr 18 min 42 sec)
Heartbeat CPU 0 instructions: 260000036 cycles: 456972607 heartbeat IPC: 0.3862 cumulative IPC: 0.3756 (Simulation time: 01 hr 23 min 01 sec)
Heartbeat CPU 0 instructions: 270000040 cycles: 482885422 heartbeat IPC: 0.3859 cumulative IPC: 0.3762 (Simulation time: 01 hr 27 min 18 sec)
Heartbeat CPU 0 instructions: 280000040 cycles: 508698017 heartbeat IPC: 0.3874 cumulative IPC: 0.3768 (Simulation time: 01 hr 31 min 38 sec)
Heartbeat CPU 0 instructions: 290000040 cycles: 533361729 heartbeat IPC: 0.4055 cumulative IPC: 0.3782 (Simulation time: 01 hr 35 min 50 sec)
Heartbeat CPU 0 instructions: 300000043 cycles: 558321997 heartbeat IPC: 0.4006 cumulative IPC: 0.3792 (Simulation time: 01 hr 40 min 07 sec)
Heartbeat CPU 0 instructions: 310000044 cycles: 581094347 heartbeat IPC: 0.4391 cumulative IPC: 0.3817 (Simulation time: 01 hr 44 min 01 sec)
Heartbeat CPU 0 instructions: 320000045 cycles: 605543447 heartbeat IPC: 0.409 cumulative IPC: 0.3829 (Simulation time: 01 hr 48 min 10 sec)
Heartbeat CPU 0 instructions: 330000045 cycles: 629624969 heartbeat IPC: 0.4153 cumulative IPC: 0.3842 (Simulation time: 01 hr 52 min 14 sec)
Heartbeat CPU 0 instructions: 340000048 cycles: 653606015 heartbeat IPC: 0.417 cumulative IPC: 0.3854 (Simulation time: 01 hr 56 min 19 sec)
Heartbeat CPU 0 instructions: 350000048 cycles: 677720688 heartbeat IPC: 0.4147 cumulative IPC: 0.3865 (Simulation time: 02 hr 00 min 24 sec)
Heartbeat CPU 0 instructions: 360000049 cycles: 701345647 heartbeat IPC: 0.4233 cumulative IPC: 0.3878 (Simulation time: 02 hr 04 min 24 sec)
Heartbeat CPU 0 instructions: 370000052 cycles: 724760059 heartbeat IPC: 0.4271 cumulative IPC: 0.3892 (Simulation time: 02 hr 08 min 25 sec)
Heartbeat CPU 0 instructions: 380000052 cycles: 748842410 heartbeat IPC: 0.4152 cumulative IPC: 0.39 (Simulation time: 02 hr 12 min 37 sec)
Heartbeat CPU 0 instructions: 390000053 cycles: 772808677 heartbeat IPC: 0.4173 cumulative IPC: 0.3909 (Simulation time: 02 hr 16 min 47 sec)
Heartbeat CPU 0 instructions: 400000054 cycles: 796875997 heartbeat IPC: 0.4155 cumulative IPC: 0.3917 (Simulation time: 02 hr 21 min 14 sec)
Heartbeat CPU 0 instructions: 410000056 cycles: 820950604 heartbeat IPC: 0.4154 cumulative IPC: 0.3924 (Simulation time: 02 hr 25 min 27 sec)
Heartbeat CPU 0 instructions: 420000059 cycles: 844912449 heartbeat IPC: 0.4173 cumulative IPC: 0.3931 (Simulation time: 02 hr 29 min 39 sec)
Heartbeat CPU 0 instructions: 430000060 cycles: 869003448 heartbeat IPC: 0.4151 cumulative IPC: 0.3938 (Simulation time: 02 hr 33 min 52 sec)
Heartbeat CPU 0 instructions: 440000061 cycles: 892943338 heartbeat IPC: 0.4177 cumulative IPC: 0.3944 (Simulation time: 02 hr 38 min 14 sec)
Heartbeat CPU 0 instructions: 450000065 cycles: 917561171 heartbeat IPC: 0.4062 cumulative IPC: 0.3948 (Simulation time: 02 hr 42 min 16 sec)
Heartbeat CPU 0 instructions: 460000065 cycles: 942731053 heartbeat IPC: 0.3973 cumulative IPC: 0.3948 (Simulation time: 02 hr 46 min 22 sec)
Heartbeat CPU 0 instructions: 470000066 cycles: 969291398 heartbeat IPC: 0.3765 cumulative IPC: 0.3943 (Simulation time: 02 hr 50 min 37 sec)
Heartbeat CPU 0 instructions: 480000070 cycles: 995022640 heartbeat IPC: 0.3886 cumulative IPC: 0.3942 (Simulation time: 02 hr 54 min 45 sec)
Heartbeat CPU 0 instructions: 490000070 cycles: 1020794064 heartbeat IPC: 0.388 cumulative IPC: 0.394 (Simulation time: 02 hr 58 min 54 sec)
Heartbeat CPU 0 instructions: 500000071 cycles: 1047734656 heartbeat IPC: 0.3712 cumulative IPC: 0.3934 (Simulation time: 03 hr 03 min 11 sec)
Heartbeat CPU 0 instructions: 510000073 cycles: 1073439246 heartbeat IPC: 0.389 cumulative IPC: 0.3933 (Simulation time: 03 hr 07 min 19 sec)
Heartbeat CPU 0 instructions: 520000074 cycles: 1099248070 heartbeat IPC: 0.3875 cumulative IPC: 0.3931 (Simulation time: 03 hr 11 min 51 sec)
Heartbeat CPU 0 instructions: 530000074 cycles: 1126224076 heartbeat IPC: 0.3707 cumulative IPC: 0.3926 (Simulation time: 03 hr 16 min 50 sec)
Heartbeat CPU 0 instructions: 540000074 cycles: 1152427433 heartbeat IPC: 0.3816 cumulative IPC: 0.3923 (Simulation time: 03 hr 21 min 19 sec)
Heartbeat CPU 0 instructions: 550000077 cycles: 1179579845 heartbeat IPC: 0.3683 cumulative IPC: 0.3918 (Simulation time: 03 hr 25 min 53 sec)
Heartbeat CPU 0 instructions: 560000077 cycles: 1206810754 heartbeat IPC: 0.3672 cumulative IPC: 0.3912 (Simulation time: 03 hr 30 min 11 sec)
Heartbeat CPU 0 instructions: 570000078 cycles: 1243550497 heartbeat IPC: 0.2722 cumulative IPC: 0.3876 (Simulation time: 03 hr 36 min 01 sec)
Heartbeat CPU 0 instructions: 580000079 cycles: 1274194368 heartbeat IPC: 0.3263 cumulative IPC: 0.3861 (Simulation time: 03 hr 40 min 47 sec)
Heartbeat CPU 0 instructions: 590000081 cycles: 1305657418 heartbeat IPC: 0.3178 cumulative IPC: 0.3844 (Simulation time: 03 hr 45 min 39 sec)
Simulation finished CPU 0 instructions: 500000000 cycles: 1305396175 cumulative IPC: 0.383 (Simulation time: 03 hr 50 min 16 sec)
Simulation complete CPU 0 instructions: 500000000 cycles: 1305396175 cumulative IPC: 0.383 (Simulation time: 03 hr 50 min 16 sec)

ChampSim completed all CPUs

=== Simulation ===
CPU 0 runs traces/T2.xz

Region of Interest Statistics

CPU 0 cumulative IPC: 0.383 instructions: 500000000 cycles: 1305396175
CPU 0 Branch Prediction Accuracy: 87.05% MPKI: 32.06 Average ROB Occupancy at Mispredict: 15.31
Branch type MPKI
BRANCH_DIRECT_JUMP: 0.2882
BRANCH_INDIRECT: 0
BRANCH_CONDITIONAL: 31.77
BRANCH_DIRECT_CALL: 0
BRANCH_INDIRECT_CALL: 0.000158
BRANCH_RETURN: 0

cpu0->cpu0_STLB TOTAL        ACCESS:    7001477 HIT:    6910075 MISS:      91402 MSHR_MERGE:          0
cpu0->cpu0_STLB LOAD         ACCESS:    7001477 HIT:    6910075 MISS:      91402 MSHR_MERGE:          0
cpu0->cpu0_STLB RFO          ACCESS:          0 HIT:          0 MISS:          0 MSHR_MERGE:          0
cpu0->cpu0_STLB PREFETCH     ACCESS:          0 HIT:          0 MISS:          0 MSHR_MERGE:          0
cpu0->cpu0_STLB WRITE        ACCESS:          0 HIT:          0 MISS:          0 MSHR_MERGE:          0
cpu0->cpu0_STLB TRANSLATION  ACCESS:          0 HIT:          0 MISS:          0 MSHR_MERGE:          0
cpu0->cpu0_STLB PREFETCH REQUESTED:          0 ISSUED:          0 USEFUL:          0 USELESS:          0
cpu0->cpu0_STLB AVERAGE MISS LATENCY: 460.1 cycles
cpu0->cpu0_L2C TOTAL        ACCESS:   20183607 HIT:    9624194 MISS:   10559413 MSHR_MERGE:          0
cpu0->cpu0_L2C LOAD         ACCESS:   15363345 HIT:    5734291 MISS:    9629054 MSHR_MERGE:          0
cpu0->cpu0_L2C RFO          ACCESS:    1902648 HIT:    1107553 MISS:     795095 MSHR_MERGE:          0
cpu0->cpu0_L2C PREFETCH     ACCESS:          0 HIT:          0 MISS:          0 MSHR_MERGE:          0
cpu0->cpu0_L2C WRITE        ACCESS:    2782065 HIT:    2780662 MISS:       1403 MSHR_MERGE:          0
cpu0->cpu0_L2C TRANSLATION  ACCESS:     135549 HIT:       1688 MISS:     133861 MSHR_MERGE:          0
cpu0->cpu0_L2C PREFETCH REQUESTED:          0 ISSUED:          0 USEFUL:          0 USELESS:          0
cpu0->cpu0_L2C AVERAGE MISS LATENCY: 86.75 cycles
cpu0->cpu0_L1I TOTAL        ACCESS:    1428786 HIT:    1428784 MISS:          2 MSHR_MERGE:          0
cpu0->cpu0_L1I LOAD         ACCESS:    1428786 HIT:    1428784 MISS:          2 MSHR_MERGE:          0
cpu0->cpu0_L1I RFO          ACCESS:          0 HIT:          0 MISS:          0 MSHR_MERGE:          0
cpu0->cpu0_L1I PREFETCH     ACCESS:          0 HIT:          0 MISS:          0 MSHR_MERGE:          0
cpu0->cpu0_L1I WRITE        ACCESS:          0 HIT:          0 MISS:          0 MSHR_MERGE:          0
cpu0->cpu0_L1I TRANSLATION  ACCESS:          0 HIT:          0 MISS:          0 MSHR_MERGE:          0
cpu0->cpu0_L1I PREFETCH REQUESTED:          0 ISSUED:          0 USEFUL:          0 USELESS:          0
cpu0->cpu0_L1I AVERAGE MISS LATENCY: 195 cycles
cpu0->cpu0_L1D TOTAL        ACCESS:  205720885 HIT:  181358841 MISS:   24362044 MSHR_MERGE:    6960487
cpu0->cpu0_L1D LOAD         ACCESS:  145713550 HIT:  126602529 MISS:   19111021 MSHR_MERGE:    3747668
cpu0->cpu0_L1D RFO          ACCESS:          0 HIT:          0 MISS:          0 MSHR_MERGE:          0
cpu0->cpu0_L1D PREFETCH     ACCESS:          0 HIT:          0 MISS:          0 MSHR_MERGE:          0
cpu0->cpu0_L1D WRITE        ACCESS:   59823974 HIT:   54708553 MISS:    5115421 MSHR_MERGE:    3212766
cpu0->cpu0_L1D TRANSLATION  ACCESS:     183361 HIT:      47759 MISS:     135602 MSHR_MERGE:         53
cpu0->cpu0_L1D PREFETCH REQUESTED:          0 ISSUED:          0 USEFUL:          0 USELESS:          0
cpu0->cpu0_L1D AVERAGE MISS LATENCY: 61.27 cycles
cpu0->cpu0_ITLB TOTAL        ACCESS:    1307332 HIT:    1307332 MISS:          0 MSHR_MERGE:          0
cpu0->cpu0_ITLB LOAD         ACCESS:    1307332 HIT:    1307332 MISS:          0 MSHR_MERGE:          0
cpu0->cpu0_ITLB RFO          ACCESS:          0 HIT:          0 MISS:          0 MSHR_MERGE:          0
cpu0->cpu0_ITLB PREFETCH     ACCESS:          0 HIT:          0 MISS:          0 MSHR_MERGE:          0
cpu0->cpu0_ITLB WRITE        ACCESS:          0 HIT:          0 MISS:          0 MSHR_MERGE:          0
cpu0->cpu0_ITLB TRANSLATION  ACCESS:          0 HIT:          0 MISS:          0 MSHR_MERGE:          0
cpu0->cpu0_ITLB PREFETCH REQUESTED:          0 ISSUED:          0 USEFUL:          0 USELESS:          0
cpu0->cpu0_ITLB AVERAGE MISS LATENCY: - cycles
cpu0->cpu0_DTLB TOTAL        ACCESS:  196498142 HIT:  186962073 MISS:    9536069 MSHR_MERGE:    2534592
cpu0->cpu0_DTLB LOAD         ACCESS:  196498142 HIT:  186962073 MISS:    9536069 MSHR_MERGE:    2534592
cpu0->cpu0_DTLB RFO          ACCESS:          0 HIT:          0 MISS:          0 MSHR_MERGE:          0
cpu0->cpu0_DTLB PREFETCH     ACCESS:          0 HIT:          0 MISS:          0 MSHR_MERGE:          0
cpu0->cpu0_DTLB WRITE        ACCESS:          0 HIT:          0 MISS:          0 MSHR_MERGE:          0
cpu0->cpu0_DTLB TRANSLATION  ACCESS:          0 HIT:          0 MISS:          0 MSHR_MERGE:          0
cpu0->cpu0_DTLB PREFETCH REQUESTED:          0 ISSUED:          0 USEFUL:          0 USELESS:          0
cpu0->cpu0_DTLB AVERAGE MISS LATENCY: 11.02 cycles
cpu0->LLC TOTAL        ACCESS:   11939203 HIT:    7528251 MISS:    4410952 MSHR_MERGE:          0
cpu0->LLC LOAD         ACCESS:    9629052 HIT:    5324727 MISS:    4304325 MSHR_MERGE:          0
cpu0->LLC RFO          ACCESS:     795094 HIT:     788645 MISS:       6449 MSHR_MERGE:          0
cpu0->LLC PREFETCH     ACCESS:          0 HIT:          0 MISS:          0 MSHR_MERGE:          0
cpu0->LLC WRITE        ACCESS:    1381196 HIT:    1373717 MISS:       7479 MSHR_MERGE:          0
cpu0->LLC TRANSLATION  ACCESS:     133861 HIT:      41162 MISS:      92699 MSHR_MERGE:          0
cpu0->LLC PREFETCH REQUESTED:          0 ISSUED:          0 USEFUL:          0 USELESS:          0
cpu0->LLC AVERAGE MISS LATENCY: 170.8 cycles

DRAM Statistics

Channel 0 RQ ROW_BUFFER_HIT:     401494
  ROW_BUFFER_MISS:    4001897
  AVG DBUS CONGESTED CYCLE: 18.93
Channel 0 WQ ROW_BUFFER_HIT:      20464
  ROW_BUFFER_MISS:      56761
  FULL:          0
Channel 0 REFRESHES ISSUED:     108783
ADAPTIVE LLC [Tri-Mode Tournament] follower_preferred: SHiP
ADAPTIVE LLC misses_lru: 22713 misses_srrip: 22083 misses_ship: 20804
ADAPTIVE LLC total_evictions: 5569533
