[VMEM] WARNING: physical memory size is smaller than virtual memory size.
WARNING: option --warmup_instructions is deprecated. Use --warmup-instructions instead.
WARNING: option --simulation_instructions is deprecated. Use --simulation-instructions instead.

*** ChampSim Multicore Out-of-Order Simulator ***
Warmup Instructions: 20000000
Simulation Instructions: 50000000
Number of CPUs: 1
Page size: 8192

Off-chip DRAM Size: 16 GiB Channels: 1 Width: 64-bit Data Rate: 3205 MT/s
Heartbeat CPU 0 instructions: 10000002 cycles: 6988530 heartbeat IPC: 1.431 cumulative IPC: 1.431 (Simulation time: 00 hr 01 min 11 sec)
Warmup finished CPU 0 instructions: 20000001 cycles: 11064508 cumulative IPC: 1.808 (Simulation time: 00 hr 02 min 03 sec)
Warmup complete CPU 0 instructions: 20000001 cycles: 11064508 cumulative IPC: 1.808 (Simulation time: 00 hr 02 min 03 sec)
Heartbeat CPU 0 instructions: 20000005 cycles: 11064509 heartbeat IPC: 2.453 cumulative IPC: 4 (Simulation time: 00 hr 02 min 03 sec)
Heartbeat CPU 0 instructions: 30000007 cycles: 75873648 heartbeat IPC: 0.1543 cumulative IPC: 0.1543 (Simulation time: 00 hr 09 min 06 sec)
Heartbeat CPU 0 instructions: 40000009 cycles: 142395720 heartbeat IPC: 0.1503 cumulative IPC: 0.1523 (Simulation time: 00 hr 16 min 40 sec)
Heartbeat CPU 0 instructions: 50000009 cycles: 208682016 heartbeat IPC: 0.1509 cumulative IPC: 0.1518 (Simulation time: 00 hr 23 min 43 sec)
Heartbeat CPU 0 instructions: 60000011 cycles: 274413874 heartbeat IPC: 0.1521 cumulative IPC: 0.1519 (Simulation time: 00 hr 30 min 34 sec)
Simulation finished CPU 0 instructions: 50000002 cycles: 331385397 cumulative IPC: 0.1509 (Simulation time: 00 hr 37 min 36 sec)
Simulation complete CPU 0 instructions: 50000002 cycles: 331385397 cumulative IPC: 0.1509 (Simulation time: 00 hr 37 min 36 sec)

ChampSim completed all CPUs

=== Simulation ===
CPU 0 runs traces/473.astar-359B.champsimtrace.xz

Region of Interest Statistics

CPU 0 cumulative IPC: 0.1509 instructions: 50000002 cycles: 331385397
CPU 0 Branch Prediction Accuracy: 93.2% MPKI: 13.43 Average ROB Occupancy at Mispredict: 44.39
Branch type MPKI
BRANCH_DIRECT_JUMP: 0
BRANCH_INDIRECT: 0
BRANCH_CONDITIONAL: 13.42
BRANCH_DIRECT_CALL: 0
BRANCH_INDIRECT_CALL: 0.00054
BRANCH_RETURN: 0

cpu0->cpu0_STLB TOTAL        ACCESS:    1275531 HIT:     889270 MISS:     386261 MSHR_MERGE:          0
cpu0->cpu0_STLB LOAD         ACCESS:    1275531 HIT:     889270 MISS:     386261 MSHR_MERGE:          0
cpu0->cpu0_STLB RFO          ACCESS:          0 HIT:          0 MISS:          0 MSHR_MERGE:          0
cpu0->cpu0_STLB PREFETCH     ACCESS:          0 HIT:          0 MISS:          0 MSHR_MERGE:          0
cpu0->cpu0_STLB WRITE        ACCESS:          0 HIT:          0 MISS:          0 MSHR_MERGE:          0
cpu0->cpu0_STLB TRANSLATION  ACCESS:          0 HIT:          0 MISS:          0 MSHR_MERGE:          0
cpu0->cpu0_STLB PREFETCH REQUESTED:          0 ISSUED:          0 USEFUL:          0 USELESS:          0
cpu0->cpu0_STLB AVERAGE MISS LATENCY: 810.4 cycles
cpu0->cpu0_L2C TOTAL        ACCESS:    6333917 HIT:    2880888 MISS:    3453029 MSHR_MERGE:      86030
cpu0->cpu0_L2C LOAD         ACCESS:    1775437 HIT:     929757 MISS:     845680 MSHR_MERGE:      19958
cpu0->cpu0_L2C RFO          ACCESS:     767623 HIT:      40730 MISS:     726893 MSHR_MERGE:          0
cpu0->cpu0_L2C PREFETCH     ACCESS:    1971759 HIT:     736293 MISS:    1235466 MSHR_MERGE:      66072
cpu0->cpu0_L2C WRITE        ACCESS:    1168855 HIT:    1168389 MISS:        466 MSHR_MERGE:          0
cpu0->cpu0_L2C TRANSLATION  ACCESS:     650243 HIT:       5719 MISS:     644524 MSHR_MERGE:          0
cpu0->cpu0_L2C PREFETCH REQUESTED:    1976560 ISSUED:    1971759 USEFUL:     309510 USELESS:     719311
cpu0->cpu0_L2C AVERAGE MISS LATENCY: 342.1 cycles
cpu0->cpu0_L1I TOTAL        ACCESS:     847489 HIT:     847482 MISS:          7 MSHR_MERGE:          0
cpu0->cpu0_L1I LOAD         ACCESS:     847489 HIT:     847482 MISS:          7 MSHR_MERGE:          0
cpu0->cpu0_L1I RFO          ACCESS:          0 HIT:          0 MISS:          0 MSHR_MERGE:          0
cpu0->cpu0_L1I PREFETCH     ACCESS:          0 HIT:          0 MISS:          0 MSHR_MERGE:          0
cpu0->cpu0_L1I WRITE        ACCESS:          0 HIT:          0 MISS:          0 MSHR_MERGE:          0
cpu0->cpu0_L1I TRANSLATION  ACCESS:          0 HIT:          0 MISS:          0 MSHR_MERGE:          0
cpu0->cpu0_L1I PREFETCH REQUESTED:          0 ISSUED:          0 USEFUL:          0 USELESS:          0
cpu0->cpu0_L1I AVERAGE MISS LATENCY: 197.9 cycles
cpu0->cpu0_L1D TOTAL        ACCESS:   19829526 HIT:   15979809 MISS:    3849717 MSHR_MERGE:     656419
cpu0->cpu0_L1D LOAD         ACCESS:   12737398 HIT:   10401105 MISS:    2336293 MSHR_MERGE:     560861
cpu0->cpu0_L1D RFO          ACCESS:          0 HIT:          0 MISS:          0 MSHR_MERGE:          0
cpu0->cpu0_L1D PREFETCH     ACCESS:          0 HIT:          0 MISS:          0 MSHR_MERGE:          0
cpu0->cpu0_L1D WRITE        ACCESS:    6314520 HIT:    5546811 MISS:     767709 MSHR_MERGE:         86
cpu0->cpu0_L1D TRANSLATION  ACCESS:     777608 HIT:      31893 MISS:     745715 MSHR_MERGE:      95472
cpu0->cpu0_L1D PREFETCH REQUESTED:          0 ISSUED:          0 USEFUL:          0 USELESS:          0
cpu0->cpu0_L1D AVERAGE MISS LATENCY: 247 cycles
cpu0->cpu0_ITLB TOTAL        ACCESS:     845183 HIT:     845183 MISS:          0 MSHR_MERGE:          0
cpu0->cpu0_ITLB LOAD         ACCESS:     845183 HIT:     845183 MISS:          0 MSHR_MERGE:          0
cpu0->cpu0_ITLB RFO          ACCESS:          0 HIT:          0 MISS:          0 MSHR_MERGE:          0
cpu0->cpu0_ITLB PREFETCH     ACCESS:          0 HIT:          0 MISS:          0 MSHR_MERGE:          0
cpu0->cpu0_ITLB WRITE        ACCESS:          0 HIT:          0 MISS:          0 MSHR_MERGE:          0
cpu0->cpu0_ITLB TRANSLATION  ACCESS:          0 HIT:          0 MISS:          0 MSHR_MERGE:          0
cpu0->cpu0_ITLB PREFETCH REQUESTED:          0 ISSUED:          0 USEFUL:          0 USELESS:          0
cpu0->cpu0_ITLB AVERAGE MISS LATENCY: - cycles
cpu0->cpu0_DTLB TOTAL        ACCESS:   18128963 HIT:   16245305 MISS:    1883658 MSHR_MERGE:     608127
cpu0->cpu0_DTLB LOAD         ACCESS:   18128963 HIT:   16245305 MISS:    1883658 MSHR_MERGE:     608127
cpu0->cpu0_DTLB RFO          ACCESS:          0 HIT:          0 MISS:          0 MSHR_MERGE:          0
cpu0->cpu0_DTLB PREFETCH     ACCESS:          0 HIT:          0 MISS:          0 MSHR_MERGE:          0
cpu0->cpu0_DTLB WRITE        ACCESS:          0 HIT:          0 MISS:          0 MSHR_MERGE:          0
cpu0->cpu0_DTLB TRANSLATION  ACCESS:          0 HIT:          0 MISS:          0 MSHR_MERGE:          0
cpu0->cpu0_DTLB PREFETCH REQUESTED:          0 ISSUED:          0 USEFUL:          0 USELESS:          0
cpu0->cpu0_DTLB AVERAGE MISS LATENCY: 249.7 cycles
cpu0->LLC TOTAL        ACCESS:    4496173 HIT:    1114198 MISS:    3381975 MSHR_MERGE:      24498
cpu0->LLC LOAD         ACCESS:     825720 HIT:     257929 MISS:     567791 MSHR_MERGE:       2272
cpu0->LLC RFO          ACCESS:     726893 HIT:     206011 MISS:     520882 MSHR_MERGE:          0
cpu0->LLC PREFETCH     ACCESS:    1169394 HIT:     195273 MISS:     974121 MSHR_MERGE:      22226
cpu0->LLC WRITE        ACCESS:    1129642 HIT:     390757 MISS:     738885 MSHR_MERGE:          0
cpu0->LLC TRANSLATION  ACCESS:     644524 HIT:      64228 MISS:     580296 MSHR_MERGE:          0
cpu0->LLC PREFETCH REQUESTED:          0 ISSUED:          0 USEFUL:          0 USELESS:          0
cpu0->LLC AVERAGE MISS LATENCY: 300.8 cycles

DRAM Statistics

Channel 0 RQ ROW_BUFFER_HIT:      79709
  ROW_BUFFER_MISS:    2534103
  AVG DBUS CONGESTED CYCLE: 26.06
Channel 0 WQ ROW_BUFFER_HIT:     136067
  ROW_BUFFER_MISS:     658609
  FULL:         51
Channel 0 REFRESHES ISSUED:      27615
