[VMEM] WARNING: physical memory size is smaller than virtual memory size.
WARNING: option --warmup_instructions is deprecated. Use --warmup-instructions instead.
WARNING: option --simulation_instructions is deprecated. Use --simulation-instructions instead.

*** ChampSim Multicore Out-of-Order Simulator ***
Warmup Instructions: 20000000
Simulation Instructions: 50000000
Number of CPUs: 1
Page size: 8192

Off-chip DRAM Size: 16 GiB Channels: 1 Width: 64-bit Data Rate: 3205 MT/s
Heartbeat CPU 0 instructions: 10000001 cycles: 2974240 heartbeat IPC: 3.362 cumulative IPC: 3.362 (Simulation time: 00 hr 00 min 36 sec)
Warmup finished CPU 0 instructions: 20000000 cycles: 5936965 cumulative IPC: 3.369 (Simulation time: 00 hr 01 min 12 sec)
Warmup complete CPU 0 instructions: 20000000 cycles: 5936965 cumulative IPC: 3.369 (Simulation time: 00 hr 01 min 12 sec)
Heartbeat CPU 0 instructions: 20000004 cycles: 5936966 heartbeat IPC: 3.375 cumulative IPC: 4 (Simulation time: 00 hr 01 min 12 sec)
Heartbeat CPU 0 instructions: 30000006 cycles: 22691345 heartbeat IPC: 0.5969 cumulative IPC: 0.5969 (Simulation time: 00 hr 03 min 45 sec)
Heartbeat CPU 0 instructions: 40000009 cycles: 39595464 heartbeat IPC: 0.5916 cumulative IPC: 0.5942 (Simulation time: 00 hr 06 min 21 sec)
Heartbeat CPU 0 instructions: 50000009 cycles: 56116088 heartbeat IPC: 0.6053 cumulative IPC: 0.5979 (Simulation time: 00 hr 08 min 55 sec)
Heartbeat CPU 0 instructions: 60000012 cycles: 72547833 heartbeat IPC: 0.6086 cumulative IPC: 0.6005 (Simulation time: 00 hr 11 min 27 sec)
Simulation finished CPU 0 instructions: 50000000 cycles: 83283242 cumulative IPC: 0.6004 (Simulation time: 00 hr 14 min 01 sec)
Simulation complete CPU 0 instructions: 50000000 cycles: 83283242 cumulative IPC: 0.6004 (Simulation time: 00 hr 14 min 01 sec)

ChampSim completed all CPUs

=== Simulation ===
CPU 0 runs traces/470.lbm-1274B.champsimtrace.xz

Region of Interest Statistics

CPU 0 cumulative IPC: 0.6004 instructions: 50000000 cycles: 83283242
CPU 0 Branch Prediction Accuracy: 99.79% MPKI: 0.02864 Average ROB Occupancy at Mispredict: 189.8
Branch type MPKI
BRANCH_DIRECT_JUMP: 0
BRANCH_INDIRECT: 0
BRANCH_CONDITIONAL: 0.02864
BRANCH_DIRECT_CALL: 0
BRANCH_INDIRECT_CALL: 0
BRANCH_RETURN: 0

cpu0->cpu0_STLB TOTAL        ACCESS:      11115 HIT:       5557 MISS:       5558 MSHR_MERGE:          0
cpu0->cpu0_STLB LOAD         ACCESS:      11115 HIT:       5557 MISS:       5558 MSHR_MERGE:          0
cpu0->cpu0_STLB RFO          ACCESS:          0 HIT:          0 MISS:          0 MSHR_MERGE:          0
cpu0->cpu0_STLB PREFETCH     ACCESS:          0 HIT:          0 MISS:          0 MSHR_MERGE:          0
cpu0->cpu0_STLB WRITE        ACCESS:          0 HIT:          0 MISS:          0 MSHR_MERGE:          0
cpu0->cpu0_STLB TRANSLATION  ACCESS:          0 HIT:          0 MISS:          0 MSHR_MERGE:          0
cpu0->cpu0_STLB PREFETCH REQUESTED:          0 ISSUED:          0 USEFUL:          0 USELESS:          0
cpu0->cpu0_STLB AVERAGE MISS LATENCY: 1509 cycles
cpu0->cpu0_L2C TOTAL        ACCESS:    5319402 HIT:    3361277 MISS:    1958125 MSHR_MERGE:     179533
cpu0->cpu0_L2C LOAD         ACCESS:     355730 HIT:     152917 MISS:     202813 MSHR_MERGE:      36943
cpu0->cpu0_L2C RFO          ACCESS:    2002641 HIT:     924632 MISS:    1078009 MSHR_MERGE:          0
cpu0->cpu0_L2C PREFETCH     ACCESS:     947177 HIT:     278573 MISS:     668604 MSHR_MERGE:     142590
cpu0->cpu0_L2C WRITE        ACCESS:    2002726 HIT:    2002711 MISS:         15 MSHR_MERGE:          0
cpu0->cpu0_L2C TRANSLATION  ACCESS:      11128 HIT:       2444 MISS:       8684 MSHR_MERGE:          0
cpu0->cpu0_L2C PREFETCH REQUESTED:    3452558 ISSUED:     947177 USEFUL:     189860 USELESS:         17
cpu0->cpu0_L2C AVERAGE MISS LATENCY: 618.8 cycles
cpu0->cpu0_L1I TOTAL        ACCESS:    8496244 HIT:    8496244 MISS:          0 MSHR_MERGE:          0
cpu0->cpu0_L1I LOAD         ACCESS:    8496244 HIT:    8496244 MISS:          0 MSHR_MERGE:          0
cpu0->cpu0_L1I RFO          ACCESS:          0 HIT:          0 MISS:          0 MSHR_MERGE:          0
cpu0->cpu0_L1I PREFETCH     ACCESS:          0 HIT:          0 MISS:          0 MSHR_MERGE:          0
cpu0->cpu0_L1I WRITE        ACCESS:          0 HIT:          0 MISS:          0 MSHR_MERGE:          0
cpu0->cpu0_L1I TRANSLATION  ACCESS:          0 HIT:          0 MISS:          0 MSHR_MERGE:          0
cpu0->cpu0_L1I PREFETCH REQUESTED:          0 ISSUED:          0 USEFUL:          0 USELESS:          0
cpu0->cpu0_L1I AVERAGE MISS LATENCY: - cycles
cpu0->cpu0_L1D TOTAL        ACCESS:    7302142 HIT:    4812611 MISS:    2489531 MSHR_MERGE:     119938
cpu0->cpu0_L1D LOAD         ACCESS:    2267495 HIT:    1849054 MISS:     418441 MSHR_MERGE:      62711
cpu0->cpu0_L1D RFO          ACCESS:          0 HIT:          0 MISS:          0 MSHR_MERGE:          0
cpu0->cpu0_L1D PREFETCH     ACCESS:          0 HIT:          0 MISS:          0 MSHR_MERGE:          0
cpu0->cpu0_L1D WRITE        ACCESS:    5023519 HIT:    2963557 MISS:    2059962 MSHR_MERGE:      57227
cpu0->cpu0_L1D TRANSLATION  ACCESS:      11128 HIT:          0 MISS:      11128 MSHR_MERGE:          0
cpu0->cpu0_L1D PREFETCH REQUESTED:          0 ISSUED:          0 USEFUL:          0 USELESS:          0
cpu0->cpu0_L1D AVERAGE MISS LATENCY: 362.3 cycles
cpu0->cpu0_ITLB TOTAL        ACCESS:    6995228 HIT:    6995228 MISS:          0 MSHR_MERGE:          0
cpu0->cpu0_ITLB LOAD         ACCESS:    6995228 HIT:    6995228 MISS:          0 MSHR_MERGE:          0
cpu0->cpu0_ITLB RFO          ACCESS:          0 HIT:          0 MISS:          0 MSHR_MERGE:          0
cpu0->cpu0_ITLB PREFETCH     ACCESS:          0 HIT:          0 MISS:          0 MSHR_MERGE:          0
cpu0->cpu0_ITLB WRITE        ACCESS:          0 HIT:          0 MISS:          0 MSHR_MERGE:          0
cpu0->cpu0_ITLB TRANSLATION  ACCESS:          0 HIT:          0 MISS:          0 MSHR_MERGE:          0
cpu0->cpu0_ITLB PREFETCH REQUESTED:          0 ISSUED:          0 USEFUL:          0 USELESS:          0
cpu0->cpu0_ITLB AVERAGE MISS LATENCY: - cycles
cpu0->cpu0_DTLB TOTAL        ACCESS:    6801767 HIT:    6777413 MISS:      24354 MSHR_MERGE:      13239
cpu0->cpu0_DTLB LOAD         ACCESS:    6801767 HIT:    6777413 MISS:      24354 MSHR_MERGE:      13239
cpu0->cpu0_DTLB RFO          ACCESS:          0 HIT:          0 MISS:          0 MSHR_MERGE:          0
cpu0->cpu0_DTLB PREFETCH     ACCESS:          0 HIT:          0 MISS:          0 MSHR_MERGE:          0
cpu0->cpu0_DTLB WRITE        ACCESS:          0 HIT:          0 MISS:          0 MSHR_MERGE:          0
cpu0->cpu0_DTLB TRANSLATION  ACCESS:          0 HIT:          0 MISS:          0 MSHR_MERGE:          0
cpu0->cpu0_DTLB PREFETCH REQUESTED:          0 ISSUED:          0 USEFUL:          0 USELESS:          0
cpu0->cpu0_DTLB AVERAGE MISS LATENCY: 758.9 cycles
cpu0->LLC TOTAL        ACCESS:    2856749 HIT:     257211 MISS:    2599538 MSHR_MERGE:     150360
cpu0->LLC LOAD         ACCESS:     165870 HIT:      53924 MISS:     111946 MSHR_MERGE:       7296
cpu0->LLC RFO          ACCESS:    1078007 HIT:      21385 MISS:    1056622 MSHR_MERGE:          0
cpu0->LLC PREFETCH     ACCESS:     526014 HIT:     131822 MISS:     394192 MSHR_MERGE:     143064
cpu0->LLC WRITE        ACCESS:    1078174 HIT:      50080 MISS:    1028094 MSHR_MERGE:          0
cpu0->LLC TRANSLATION  ACCESS:       8684 HIT:          0 MISS:       8684 MSHR_MERGE:          0
cpu0->LLC PREFETCH REQUESTED:          0 ISSUED:          0 USEFUL:          0 USELESS:          0
cpu0->LLC AVERAGE MISS LATENCY: 349.3 cycles

DRAM Statistics

Channel 0 RQ ROW_BUFFER_HIT:      60357
  ROW_BUFFER_MISS:    1360546
  AVG DBUS CONGESTED CYCLE: 22.84
Channel 0 WQ ROW_BUFFER_HIT:     168911
  ROW_BUFFER_MISS:     905599
  FULL:        844
Channel 0 REFRESHES ISSUED:       6941
