[VMEM] WARNING: physical memory size is smaller than virtual memory size.
WARNING: option --warmup_instructions is deprecated. Use --warmup-instructions instead.
WARNING: option --simulation_instructions is deprecated. Use --simulation-instructions instead.

*** ChampSim Multicore Out-of-Order Simulator ***
Warmup Instructions: 20000000
Simulation Instructions: 50000000
Number of CPUs: 1
Page size: 8192

Off-chip DRAM Size: 16 GiB Channels: 1 Width: 64-bit Data Rate: 3205 MT/s
Heartbeat CPU 0 instructions: 10000007 cycles: 4552395 heartbeat IPC: 2.197 cumulative IPC: 2.197 (Simulation time: 00 hr 00 min 48 sec)
Warmup finished CPU 0 instructions: 20000006 cycles: 9051194 cumulative IPC: 2.21 (Simulation time: 00 hr 01 min 37 sec)
Warmup complete CPU 0 instructions: 20000006 cycles: 9051194 cumulative IPC: 2.21 (Simulation time: 00 hr 01 min 37 sec)
Heartbeat CPU 0 instructions: 20000014 cycles: 9051195 heartbeat IPC: 2.223 cumulative IPC: 8 (Simulation time: 00 hr 01 min 37 sec)
Heartbeat CPU 0 instructions: 30000015 cycles: 49309800 heartbeat IPC: 0.2484 cumulative IPC: 0.2484 (Simulation time: 00 hr 04 min 40 sec)
Heartbeat CPU 0 instructions: 40000019 cycles: 88970848 heartbeat IPC: 0.2521 cumulative IPC: 0.2503 (Simulation time: 00 hr 07 min 40 sec)
Heartbeat CPU 0 instructions: 50000023 cycles: 129223446 heartbeat IPC: 0.2484 cumulative IPC: 0.2496 (Simulation time: 00 hr 10 min 38 sec)
Heartbeat CPU 0 instructions: 60000027 cycles: 168868553 heartbeat IPC: 0.2522 cumulative IPC: 0.2503 (Simulation time: 00 hr 13 min 38 sec)
Simulation finished CPU 0 instructions: 50000006 cycles: 200110733 cumulative IPC: 0.2499 (Simulation time: 00 hr 16 min 43 sec)
Simulation complete CPU 0 instructions: 50000006 cycles: 200110733 cumulative IPC: 0.2499 (Simulation time: 00 hr 16 min 43 sec)

ChampSim completed all CPUs

=== Simulation ===
CPU 0 runs traces/605.mcf_s-1152B.champsimtrace.xz

Region of Interest Statistics

CPU 0 cumulative IPC: 0.2499 instructions: 50000006 cycles: 200110733
CPU 0 Branch Prediction Accuracy: 90.19% MPKI: 24.48 Average ROB Occupancy at Mispredict: 16.71
Branch type MPKI
BRANCH_DIRECT_JUMP: 0.2057
BRANCH_INDIRECT: 0
BRANCH_CONDITIONAL: 24.27
BRANCH_DIRECT_CALL: 0
BRANCH_INDIRECT_CALL: 0.0036
BRANCH_RETURN: 2e-05

cpu0->cpu0_STLB TOTAL        ACCESS:    1006064 HIT:    1000307 MISS:       5757 MSHR_MERGE:          0
cpu0->cpu0_STLB LOAD         ACCESS:    1006064 HIT:    1000307 MISS:       5757 MSHR_MERGE:          0
cpu0->cpu0_STLB RFO          ACCESS:          0 HIT:          0 MISS:          0 MSHR_MERGE:          0
cpu0->cpu0_STLB PREFETCH     ACCESS:          0 HIT:          0 MISS:          0 MSHR_MERGE:          0
cpu0->cpu0_STLB WRITE        ACCESS:          0 HIT:          0 MISS:          0 MSHR_MERGE:          0
cpu0->cpu0_STLB TRANSLATION  ACCESS:          0 HIT:          0 MISS:          0 MSHR_MERGE:          0
cpu0->cpu0_STLB PREFETCH REQUESTED:          0 ISSUED:          0 USEFUL:          0 USELESS:          0
cpu0->cpu0_STLB AVERAGE MISS LATENCY: 610.6 cycles
cpu0->cpu0_L2C TOTAL        ACCESS:    3014285 HIT:     737402 MISS:    2276883 MSHR_MERGE:          0
cpu0->cpu0_L2C LOAD         ACCESS:    2552683 HIT:     417058 MISS:    2135625 MSHR_MERGE:          0
cpu0->cpu0_L2C RFO          ACCESS:     187426 HIT:      53287 MISS:     134139 MSHR_MERGE:          0
cpu0->cpu0_L2C PREFETCH     ACCESS:          0 HIT:          0 MISS:          0 MSHR_MERGE:          0
cpu0->cpu0_L2C WRITE        ACCESS:     265833 HIT:     265516 MISS:        317 MSHR_MERGE:          0
cpu0->cpu0_L2C TRANSLATION  ACCESS:       8343 HIT:       1541 MISS:       6802 MSHR_MERGE:          0
cpu0->cpu0_L2C PREFETCH REQUESTED:          0 ISSUED:          0 USEFUL:          0 USELESS:          0
cpu0->cpu0_L2C AVERAGE MISS LATENCY: 72.21 cycles
cpu0->cpu0_L1I TOTAL        ACCESS:     899833 HIT:     899833 MISS:          0 MSHR_MERGE:          0
cpu0->cpu0_L1I LOAD         ACCESS:     899833 HIT:     899833 MISS:          0 MSHR_MERGE:          0
cpu0->cpu0_L1I RFO          ACCESS:          0 HIT:          0 MISS:          0 MSHR_MERGE:          0
cpu0->cpu0_L1I PREFETCH     ACCESS:          0 HIT:          0 MISS:          0 MSHR_MERGE:          0
cpu0->cpu0_L1I WRITE        ACCESS:          0 HIT:          0 MISS:          0 MSHR_MERGE:          0
cpu0->cpu0_L1I TRANSLATION  ACCESS:          0 HIT:          0 MISS:          0 MSHR_MERGE:          0
cpu0->cpu0_L1I PREFETCH REQUESTED:          0 ISSUED:          0 USEFUL:          0 USELESS:          0
cpu0->cpu0_L1I AVERAGE MISS LATENCY: - cycles
cpu0->cpu0_L1D TOTAL        ACCESS:   17530211 HIT:   13871484 MISS:    3658727 MSHR_MERGE:     910270
cpu0->cpu0_L1D LOAD         ACCESS:   12390700 HIT:    9238514 MISS:    3152186 MSHR_MERGE:     599502
cpu0->cpu0_L1D RFO          ACCESS:          0 HIT:          0 MISS:          0 MSHR_MERGE:          0
cpu0->cpu0_L1D PREFETCH     ACCESS:          0 HIT:          0 MISS:          0 MSHR_MERGE:          0
cpu0->cpu0_L1D WRITE        ACCESS:    5127901 HIT:    4629703 MISS:     498198 MSHR_MERGE:     310768
cpu0->cpu0_L1D TRANSLATION  ACCESS:      11610 HIT:       3267 MISS:       8343 MSHR_MERGE:          0
cpu0->cpu0_L1D PREFETCH REQUESTED:          0 ISSUED:          0 USEFUL:          0 USELESS:          0
cpu0->cpu0_L1D AVERAGE MISS LATENCY: 68.65 cycles
cpu0->cpu0_ITLB TOTAL        ACCESS:     796421 HIT:     796421 MISS:          0 MSHR_MERGE:          0
cpu0->cpu0_ITLB LOAD         ACCESS:     796421 HIT:     796421 MISS:          0 MSHR_MERGE:          0
cpu0->cpu0_ITLB RFO          ACCESS:          0 HIT:          0 MISS:          0 MSHR_MERGE:          0
cpu0->cpu0_ITLB PREFETCH     ACCESS:          0 HIT:          0 MISS:          0 MSHR_MERGE:          0
cpu0->cpu0_ITLB WRITE        ACCESS:          0 HIT:          0 MISS:          0 MSHR_MERGE:          0
cpu0->cpu0_ITLB TRANSLATION  ACCESS:          0 HIT:          0 MISS:          0 MSHR_MERGE:          0
cpu0->cpu0_ITLB PREFETCH REQUESTED:          0 ISSUED:          0 USEFUL:          0 USELESS:          0
cpu0->cpu0_ITLB AVERAGE MISS LATENCY: - cycles
cpu0->cpu0_DTLB TOTAL        ACCESS:   16306266 HIT:   15116147 MISS:    1190119 MSHR_MERGE:     184055
cpu0->cpu0_DTLB LOAD         ACCESS:   16306266 HIT:   15116147 MISS:    1190119 MSHR_MERGE:     184055
cpu0->cpu0_DTLB RFO          ACCESS:          0 HIT:          0 MISS:          0 MSHR_MERGE:          0
cpu0->cpu0_DTLB PREFETCH     ACCESS:          0 HIT:          0 MISS:          0 MSHR_MERGE:          0
cpu0->cpu0_DTLB WRITE        ACCESS:          0 HIT:          0 MISS:          0 MSHR_MERGE:          0
cpu0->cpu0_DTLB TRANSLATION  ACCESS:          0 HIT:          0 MISS:          0 MSHR_MERGE:          0
cpu0->cpu0_DTLB PREFETCH REQUESTED:          0 ISSUED:          0 USEFUL:          0 USELESS:          0
cpu0->cpu0_DTLB AVERAGE MISS LATENCY: 7.5 cycles
cpu0->LLC TOTAL        ACCESS:    2479512 HIT:    1447215 MISS:    1032297 MSHR_MERGE:          0
cpu0->LLC LOAD         ACCESS:    2135625 HIT:    1115870 MISS:    1019755 MSHR_MERGE:          0
cpu0->LLC RFO          ACCESS:     134139 HIT:     132546 MISS:       1593 MSHR_MERGE:          0
cpu0->LLC PREFETCH     ACCESS:          0 HIT:          0 MISS:          0 MSHR_MERGE:          0
cpu0->LLC WRITE        ACCESS:     202946 HIT:     198789 MISS:       4157 MSHR_MERGE:          0
cpu0->LLC TRANSLATION  ACCESS:       6802 HIT:         10 MISS:       6792 MSHR_MERGE:          0
cpu0->LLC PREFETCH REQUESTED:          0 ISSUED:          0 USEFUL:          0 USELESS:          0
cpu0->LLC AVERAGE MISS LATENCY: 123 cycles

DRAM Statistics

Channel 0 RQ ROW_BUFFER_HIT:     186068
  ROW_BUFFER_MISS:     842065
  AVG DBUS CONGESTED CYCLE: 23.17
Channel 0 WQ ROW_BUFFER_HIT:        390
  ROW_BUFFER_MISS:       5977
  FULL:          0
Channel 0 REFRESHES ISSUED:      16676
