[VMEM] WARNING: physical memory size is smaller than virtual memory size.
WARNING: option --warmup_instructions is deprecated. Use --warmup-instructions instead.
WARNING: option --simulation_instructions is deprecated. Use --simulation-instructions instead.

*** ChampSim Multicore Out-of-Order Simulator ***
Warmup Instructions: 20000000
Simulation Instructions: 50000000
Number of CPUs: 1
Page size: 8192

Off-chip DRAM Size: 16 GiB Channels: 1 Width: 64-bit Data Rate: 3205 MT/s
Heartbeat CPU 0 instructions: 10000000 cycles: 5198235 heartbeat IPC: 1.924 cumulative IPC: 1.924 (Simulation time: 00 hr 00 min 43 sec)
Heartbeat CPU 0 instructions: 20000000 cycles: 10388101 heartbeat IPC: 1.927 cumulative IPC: 1.925 (Simulation time: 00 hr 01 min 26 sec)
Warmup finished CPU 0 instructions: 20000000 cycles: 10388101 cumulative IPC: 1.925 (Simulation time: 00 hr 01 min 26 sec)
Warmup complete CPU 0 instructions: 20000000 cycles: 10388101 cumulative IPC: 1.925 (Simulation time: 00 hr 01 min 26 sec)
Heartbeat CPU 0 instructions: 30000000 cycles: 22009175 heartbeat IPC: 0.8605 cumulative IPC: 0.8605 (Simulation time: 00 hr 03 min 12 sec)
Heartbeat CPU 0 instructions: 40000000 cycles: 33099198 heartbeat IPC: 0.9017 cumulative IPC: 0.8806 (Simulation time: 00 hr 04 min 53 sec)
Heartbeat CPU 0 instructions: 50000001 cycles: 44238317 heartbeat IPC: 0.8977 cumulative IPC: 0.8863 (Simulation time: 00 hr 06 min 34 sec)
Heartbeat CPU 0 instructions: 60000002 cycles: 55360511 heartbeat IPC: 0.8991 cumulative IPC: 0.8894 (Simulation time: 00 hr 08 min 16 sec)
Simulation finished CPU 0 instructions: 50000000 cycles: 55970933 cumulative IPC: 0.8933 (Simulation time: 00 hr 09 min 57 sec)
Simulation complete CPU 0 instructions: 50000000 cycles: 55970933 cumulative IPC: 0.8933 (Simulation time: 00 hr 09 min 57 sec)

ChampSim completed all CPUs

=== Simulation ===
CPU 0 runs traces/470.lbm-1274B.champsimtrace.xz

Region of Interest Statistics

CPU 0 cumulative IPC: 0.8933 instructions: 50000000 cycles: 55970933
CPU 0 Branch Prediction Accuracy: 99.79% MPKI: 0.02864 Average ROB Occupancy at Mispredict: 190
Branch type MPKI
BRANCH_DIRECT_JUMP: 0
BRANCH_INDIRECT: 0
BRANCH_CONDITIONAL: 0.02864
BRANCH_DIRECT_CALL: 0
BRANCH_INDIRECT_CALL: 0
BRANCH_RETURN: 0

cpu0->cpu0_STLB TOTAL        ACCESS:      11115 HIT:       5557 MISS:       5558 MSHR_MERGE:          0
cpu0->cpu0_STLB LOAD         ACCESS:      11115 HIT:       5557 MISS:       5558 MSHR_MERGE:          0
cpu0->cpu0_STLB RFO          ACCESS:          0 HIT:          0 MISS:          0 MSHR_MERGE:          0
cpu0->cpu0_STLB PREFETCH     ACCESS:          0 HIT:          0 MISS:          0 MSHR_MERGE:          0
cpu0->cpu0_STLB WRITE        ACCESS:          0 HIT:          0 MISS:          0 MSHR_MERGE:          0
cpu0->cpu0_STLB TRANSLATION  ACCESS:          0 HIT:          0 MISS:          0 MSHR_MERGE:          0
cpu0->cpu0_STLB PREFETCH REQUESTED:          0 ISSUED:          0 USEFUL:          0 USELESS:          0
cpu0->cpu0_STLB AVERAGE MISS LATENCY: 1233 cycles
cpu0->cpu0_L2C TOTAL        ACCESS:    5496926 HIT:    3302745 MISS:    2194181 MSHR_MERGE:      81286
cpu0->cpu0_L2C LOAD         ACCESS:     355730 HIT:     180506 MISS:     175224 MSHR_MERGE:       8423
cpu0->cpu0_L2C RFO          ACCESS:    2002634 HIT:     924715 MISS:    1077919 MSHR_MERGE:          0
cpu0->cpu0_L2C PREFETCH     ACCESS:    1124708 HIT:     192369 MISS:     932339 MSHR_MERGE:      72863
cpu0->cpu0_L2C WRITE        ACCESS:    2002726 HIT:    2002711 MISS:         15 MSHR_MERGE:          0
cpu0->cpu0_L2C TRANSLATION  ACCESS:      11128 HIT:       2444 MISS:       8684 MSHR_MERGE:          0
cpu0->cpu0_L2C PREFETCH REQUESTED:    2676249 ISSUED:    1124708 USEFUL:     188929 USELESS:         34
cpu0->cpu0_L2C AVERAGE MISS LATENCY: 476.9 cycles
cpu0->cpu0_L1I TOTAL        ACCESS:   14540409 HIT:   14540409 MISS:          0 MSHR_MERGE:          0
cpu0->cpu0_L1I LOAD         ACCESS:   14540409 HIT:   14540409 MISS:          0 MSHR_MERGE:          0
cpu0->cpu0_L1I RFO          ACCESS:          0 HIT:          0 MISS:          0 MSHR_MERGE:          0
cpu0->cpu0_L1I PREFETCH     ACCESS:          0 HIT:          0 MISS:          0 MSHR_MERGE:          0
cpu0->cpu0_L1I WRITE        ACCESS:          0 HIT:          0 MISS:          0 MSHR_MERGE:          0
cpu0->cpu0_L1I TRANSLATION  ACCESS:          0 HIT:          0 MISS:          0 MSHR_MERGE:          0
cpu0->cpu0_L1I PREFETCH REQUESTED:          0 ISSUED:          0 USEFUL:          0 USELESS:          0
cpu0->cpu0_L1I AVERAGE MISS LATENCY: - cycles
cpu0->cpu0_L1D TOTAL        ACCESS:    8074478 HIT:    5598843 MISS:    2475635 MSHR_MERGE:     106050
cpu0->cpu0_L1D LOAD         ACCESS:    3039831 HIT:    2641462 MISS:     398369 MSHR_MERGE:      42639
cpu0->cpu0_L1D RFO          ACCESS:          0 HIT:          0 MISS:          0 MSHR_MERGE:          0
cpu0->cpu0_L1D PREFETCH     ACCESS:          0 HIT:          0 MISS:          0 MSHR_MERGE:          0
cpu0->cpu0_L1D WRITE        ACCESS:    5023519 HIT:    2957381 MISS:    2066138 MSHR_MERGE:      63411
cpu0->cpu0_L1D TRANSLATION  ACCESS:      11128 HIT:          0 MISS:      11128 MSHR_MERGE:          0
cpu0->cpu0_L1D PREFETCH REQUESTED:          0 ISSUED:          0 USEFUL:          0 USELESS:          0
cpu0->cpu0_L1D AVERAGE MISS LATENCY: 271.7 cycles
cpu0->cpu0_ITLB TOTAL        ACCESS:   12787130 HIT:   12787130 MISS:          0 MSHR_MERGE:          0
cpu0->cpu0_ITLB LOAD         ACCESS:   12787130 HIT:   12787130 MISS:          0 MSHR_MERGE:          0
cpu0->cpu0_ITLB RFO          ACCESS:          0 HIT:          0 MISS:          0 MSHR_MERGE:          0
cpu0->cpu0_ITLB PREFETCH     ACCESS:          0 HIT:          0 MISS:          0 MSHR_MERGE:          0
cpu0->cpu0_ITLB WRITE        ACCESS:          0 HIT:          0 MISS:          0 MSHR_MERGE:          0
cpu0->cpu0_ITLB TRANSLATION  ACCESS:          0 HIT:          0 MISS:          0 MSHR_MERGE:          0
cpu0->cpu0_ITLB PREFETCH REQUESTED:          0 ISSUED:          0 USEFUL:          0 USELESS:          0
cpu0->cpu0_ITLB AVERAGE MISS LATENCY: - cycles
cpu0->cpu0_DTLB TOTAL        ACCESS:    7903791 HIT:    7877314 MISS:      26477 MSHR_MERGE:      15362
cpu0->cpu0_DTLB LOAD         ACCESS:    7903791 HIT:    7877314 MISS:      26477 MSHR_MERGE:      15362
cpu0->cpu0_DTLB RFO          ACCESS:          0 HIT:          0 MISS:          0 MSHR_MERGE:          0
cpu0->cpu0_DTLB PREFETCH     ACCESS:          0 HIT:          0 MISS:          0 MSHR_MERGE:          0
cpu0->cpu0_DTLB WRITE        ACCESS:          0 HIT:          0 MISS:          0 MSHR_MERGE:          0
cpu0->cpu0_DTLB TRANSLATION  ACCESS:          0 HIT:          0 MISS:          0 MSHR_MERGE:          0
cpu0->cpu0_DTLB PREFETCH REQUESTED:          0 ISSUED:          0 USEFUL:          0 USELESS:          0
cpu0->cpu0_DTLB AVERAGE MISS LATENCY: 621.1 cycles
cpu0->LLC TOTAL        ACCESS:    3190971 HIT:     500291 MISS:    2690680 MSHR_MERGE:     238752
cpu0->LLC LOAD         ACCESS:     166801 HIT:     137028 MISS:      29773 MSHR_MERGE:       7772
cpu0->LLC RFO          ACCESS:    1077918 HIT:      20020 MISS:    1057898 MSHR_MERGE:          0
cpu0->LLC PREFETCH     ACCESS:     859476 HIT:     294691 MISS:     564785 MSHR_MERGE:     230980
cpu0->LLC WRITE        ACCESS:    1078092 HIT:      48552 MISS:    1029540 MSHR_MERGE:          0
cpu0->LLC TRANSLATION  ACCESS:       8684 HIT:          0 MISS:       8684 MSHR_MERGE:          0
cpu0->LLC PREFETCH REQUESTED:          0 ISSUED:          0 USEFUL:          0 USELESS:          0
cpu0->LLC AVERAGE MISS LATENCY: 276.5 cycles

DRAM Statistics

Channel 0 RQ ROW_BUFFER_HIT:      40849
  ROW_BUFFER_MISS:    1381364
  AVG DBUS CONGESTED CYCLE: 11.5
Channel 0 WQ ROW_BUFFER_HIT:     137196
  ROW_BUFFER_MISS:     939785
  FULL:        734
Channel 0 REFRESHES ISSUED:       4664
