[VMEM] WARNING: physical memory size is smaller than virtual memory size.
WARNING: option --warmup_instructions is deprecated. Use --warmup-instructions instead.
WARNING: option --simulation_instructions is deprecated. Use --simulation-instructions instead.

*** ChampSim Multicore Out-of-Order Simulator ***
Warmup Instructions: 20000000
Simulation Instructions: 50000000
Number of CPUs: 1
Page size: 8192

Off-chip DRAM Size: 16 GiB Channels: 1 Width: 64-bit Data Rate: 3205 MT/s
Heartbeat CPU 0 instructions: 10000000 cycles: 6915400 heartbeat IPC: 1.446 cumulative IPC: 1.446 (Simulation time: 00 hr 01 min 01 sec)
Heartbeat CPU 0 instructions: 20000001 cycles: 13373818 heartbeat IPC: 1.548 cumulative IPC: 1.495 (Simulation time: 00 hr 02 min 06 sec)
Warmup finished CPU 0 instructions: 20000001 cycles: 13373818 cumulative IPC: 1.495 (Simulation time: 00 hr 02 min 06 sec)
Warmup complete CPU 0 instructions: 20000001 cycles: 13373818 cumulative IPC: 1.495 (Simulation time: 00 hr 02 min 06 sec)
Heartbeat CPU 0 instructions: 30000002 cycles: 30178284 heartbeat IPC: 0.5951 cumulative IPC: 0.5951 (Simulation time: 00 hr 03 min 55 sec)
Heartbeat CPU 0 instructions: 40000002 cycles: 40772259 heartbeat IPC: 0.9439 cumulative IPC: 0.73 (Simulation time: 00 hr 05 min 07 sec)
Heartbeat CPU 0 instructions: 50000003 cycles: 54678082 heartbeat IPC: 0.7191 cumulative IPC: 0.7263 (Simulation time: 00 hr 06 min 37 sec)
Heartbeat CPU 0 instructions: 60000003 cycles: 74766364 heartbeat IPC: 0.4978 cumulative IPC: 0.6515 (Simulation time: 00 hr 08 min 43 sec)
Simulation finished CPU 0 instructions: 50000000 cycles: 74841708 cumulative IPC: 0.6681 (Simulation time: 00 hr 10 min 11 sec)
Simulation complete CPU 0 instructions: 50000000 cycles: 74841708 cumulative IPC: 0.6681 (Simulation time: 00 hr 10 min 11 sec)

ChampSim completed all CPUs

=== Simulation ===
CPU 0 runs traces/429.mcf-217B.champsimtrace.xz

Region of Interest Statistics

CPU 0 cumulative IPC: 0.6681 instructions: 50000000 cycles: 74841708
CPU 0 Branch Prediction Accuracy: 98.95% MPKI: 1.194 Average ROB Occupancy at Mispredict: 126.3
Branch type MPKI
BRANCH_DIRECT_JUMP: 0
BRANCH_INDIRECT: 0
BRANCH_CONDITIONAL: 1.194
BRANCH_DIRECT_CALL: 0
BRANCH_INDIRECT_CALL: 0
BRANCH_RETURN: 0

cpu0->cpu0_STLB TOTAL        ACCESS:      58330 HIT:      56480 MISS:       1850 MSHR_MERGE:          0
cpu0->cpu0_STLB LOAD         ACCESS:      58330 HIT:      56480 MISS:       1850 MSHR_MERGE:          0
cpu0->cpu0_STLB RFO          ACCESS:          0 HIT:          0 MISS:          0 MSHR_MERGE:          0
cpu0->cpu0_STLB PREFETCH     ACCESS:          0 HIT:          0 MISS:          0 MSHR_MERGE:          0
cpu0->cpu0_STLB WRITE        ACCESS:          0 HIT:          0 MISS:          0 MSHR_MERGE:          0
cpu0->cpu0_STLB TRANSLATION  ACCESS:          0 HIT:          0 MISS:          0 MSHR_MERGE:          0
cpu0->cpu0_STLB PREFETCH REQUESTED:          0 ISSUED:          0 USEFUL:          0 USELESS:          0
cpu0->cpu0_STLB AVERAGE MISS LATENCY: 698.7 cycles
cpu0->cpu0_L2C TOTAL        ACCESS:   10129114 HIT:    4319872 MISS:    5809242 MSHR_MERGE:    2962856
cpu0->cpu0_L2C LOAD         ACCESS:    2598462 HIT:    1814275 MISS:     784187 MSHR_MERGE:     613296
cpu0->cpu0_L2C RFO          ACCESS:       1567 HIT:       1461 MISS:        106 MSHR_MERGE:          3
cpu0->cpu0_L2C PREFETCH     ACCESS:    7429469 HIT:    2408150 MISS:    5021319 MSHR_MERGE:    2349557
cpu0->cpu0_L2C WRITE        ACCESS:      96223 HIT:      95495 MISS:        728 MSHR_MERGE:          0
cpu0->cpu0_L2C TRANSLATION  ACCESS:       3393 HIT:        491 MISS:       2902 MSHR_MERGE:          0
cpu0->cpu0_L2C PREFETCH REQUESTED:    7434848 ISSUED:    7429455 USEFUL:    2407919 USELESS:     156000
cpu0->cpu0_L2C AVERAGE MISS LATENCY: 74.98 cycles
cpu0->cpu0_L1I TOTAL        ACCESS:   10715359 HIT:   10715359 MISS:          0 MSHR_MERGE:          0
cpu0->cpu0_L1I LOAD         ACCESS:   10715359 HIT:   10715359 MISS:          0 MSHR_MERGE:          0
cpu0->cpu0_L1I RFO          ACCESS:          0 HIT:          0 MISS:          0 MSHR_MERGE:          0
cpu0->cpu0_L1I PREFETCH     ACCESS:          0 HIT:          0 MISS:          0 MSHR_MERGE:          0
cpu0->cpu0_L1I WRITE        ACCESS:          0 HIT:          0 MISS:          0 MSHR_MERGE:          0
cpu0->cpu0_L1I TRANSLATION  ACCESS:          0 HIT:          0 MISS:          0 MSHR_MERGE:          0
cpu0->cpu0_L1I PREFETCH REQUESTED:          0 ISSUED:          0 USEFUL:          0 USELESS:          0
cpu0->cpu0_L1I AVERAGE MISS LATENCY: - cycles
cpu0->cpu0_L1D TOTAL        ACCESS:   19475726 HIT:   16744929 MISS:    2730797 MSHR_MERGE:     127366
cpu0->cpu0_L1D LOAD         ACCESS:    9088457 HIT:    6364281 MISS:    2724176 MSHR_MERGE:     125705
cpu0->cpu0_L1D RFO          ACCESS:          0 HIT:          0 MISS:          0 MSHR_MERGE:          0
cpu0->cpu0_L1D PREFETCH     ACCESS:          0 HIT:          0 MISS:          0 MSHR_MERGE:          0
cpu0->cpu0_L1D WRITE        ACCESS:   10383562 HIT:   10380334 MISS:       3228 MSHR_MERGE:       1661
cpu0->cpu0_L1D TRANSLATION  ACCESS:       3707 HIT:        314 MISS:       3393 MSHR_MERGE:          0
cpu0->cpu0_L1D PREFETCH REQUESTED:          0 ISSUED:          0 USEFUL:          0 USELESS:          0
cpu0->cpu0_L1D AVERAGE MISS LATENCY: 31.01 cycles
cpu0->cpu0_ITLB TOTAL        ACCESS:   10045052 HIT:   10045052 MISS:          0 MSHR_MERGE:          0
cpu0->cpu0_ITLB LOAD         ACCESS:   10045052 HIT:   10045052 MISS:          0 MSHR_MERGE:          0
cpu0->cpu0_ITLB RFO          ACCESS:          0 HIT:          0 MISS:          0 MSHR_MERGE:          0
cpu0->cpu0_ITLB PREFETCH     ACCESS:          0 HIT:          0 MISS:          0 MSHR_MERGE:          0
cpu0->cpu0_ITLB WRITE        ACCESS:          0 HIT:          0 MISS:          0 MSHR_MERGE:          0
cpu0->cpu0_ITLB TRANSLATION  ACCESS:          0 HIT:          0 MISS:          0 MSHR_MERGE:          0
cpu0->cpu0_ITLB PREFETCH REQUESTED:          0 ISSUED:          0 USEFUL:          0 USELESS:          0
cpu0->cpu0_ITLB AVERAGE MISS LATENCY: - cycles
cpu0->cpu0_DTLB TOTAL        ACCESS:   17301101 HIT:   17222723 MISS:      78378 MSHR_MERGE:      20048
cpu0->cpu0_DTLB LOAD         ACCESS:   17301101 HIT:   17222723 MISS:      78378 MSHR_MERGE:      20048
cpu0->cpu0_DTLB RFO          ACCESS:          0 HIT:          0 MISS:          0 MSHR_MERGE:          0
cpu0->cpu0_DTLB PREFETCH     ACCESS:          0 HIT:          0 MISS:          0 MSHR_MERGE:          0
cpu0->cpu0_DTLB WRITE        ACCESS:          0 HIT:          0 MISS:          0 MSHR_MERGE:          0
cpu0->cpu0_DTLB TRANSLATION  ACCESS:          0 HIT:          0 MISS:          0 MSHR_MERGE:          0
cpu0->cpu0_DTLB PREFETCH REQUESTED:          0 ISSUED:          0 USEFUL:          0 USELESS:          0
cpu0->cpu0_DTLB AVERAGE MISS LATENCY: 26.19 cycles
cpu0->LLC TOTAL        ACCESS:    2926136 HIT:     745819 MISS:    2180317 MSHR_MERGE:      68945
cpu0->LLC LOAD         ACCESS:     170891 HIT:      21788 MISS:     149103 MSHR_MERGE:         51
cpu0->LLC RFO          ACCESS:        103 HIT:         73 MISS:         30 MSHR_MERGE:          0
cpu0->LLC PREFETCH     ACCESS:    2671759 HIT:     705726 MISS:    1966033 MSHR_MERGE:      68894
cpu0->LLC WRITE        ACCESS:      80481 HIT:      18224 MISS:      62257 MSHR_MERGE:          0
cpu0->LLC TRANSLATION  ACCESS:       2902 HIT:          8 MISS:       2894 MSHR_MERGE:          0
cpu0->LLC PREFETCH REQUESTED:          0 ISSUED:          0 USEFUL:          0 USELESS:          0
cpu0->LLC AVERAGE MISS LATENCY: 111.4 cycles

DRAM Statistics

Channel 0 RQ ROW_BUFFER_HIT:     201883
  ROW_BUFFER_MISS:    1846833
  AVG DBUS CONGESTED CYCLE: 6.56
Channel 0 WQ ROW_BUFFER_HIT:      11138
  ROW_BUFFER_MISS:      65786
  FULL:          0
Channel 0 REFRESHES ISSUED:       6237
