[VMEM] WARNING: physical memory size is smaller than virtual memory size.
WARNING: option --warmup_instructions is deprecated. Use --warmup-instructions instead.
WARNING: option --simulation_instructions is deprecated. Use --simulation-instructions instead.

*** ChampSim Multicore Out-of-Order Simulator ***
Warmup Instructions: 20000000
Simulation Instructions: 50000000
Number of CPUs: 1
Page size: 8192

Off-chip DRAM Size: 16 GiB Channels: 1 Width: 64-bit Data Rate: 3205 MT/s
Heartbeat CPU 0 instructions: 10000000 cycles: 6986512 heartbeat IPC: 1.431 cumulative IPC: 1.431 (Simulation time: 00 hr 01 min 06 sec)
Heartbeat CPU 0 instructions: 20000001 cycles: 11067937 heartbeat IPC: 2.45 cumulative IPC: 1.807 (Simulation time: 00 hr 01 min 55 sec)
Warmup finished CPU 0 instructions: 20000001 cycles: 11067937 cumulative IPC: 1.807 (Simulation time: 00 hr 01 min 55 sec)
Warmup complete CPU 0 instructions: 20000001 cycles: 11067937 cumulative IPC: 1.807 (Simulation time: 00 hr 01 min 55 sec)
Heartbeat CPU 0 instructions: 30000003 cycles: 60056767 heartbeat IPC: 0.2041 cumulative IPC: 0.2041 (Simulation time: 00 hr 05 min 56 sec)
Heartbeat CPU 0 instructions: 40000005 cycles: 108953955 heartbeat IPC: 0.2045 cumulative IPC: 0.2043 (Simulation time: 00 hr 10 min 00 sec)
Heartbeat CPU 0 instructions: 50000006 cycles: 157780018 heartbeat IPC: 0.2048 cumulative IPC: 0.2045 (Simulation time: 00 hr 14 min 08 sec)
Heartbeat CPU 0 instructions: 60000007 cycles: 206344961 heartbeat IPC: 0.2059 cumulative IPC: 0.2048 (Simulation time: 00 hr 18 min 08 sec)
Simulation finished CPU 0 instructions: 50000002 cycles: 242688060 cumulative IPC: 0.206 (Simulation time: 00 hr 22 min 14 sec)
Simulation complete CPU 0 instructions: 50000002 cycles: 242688060 cumulative IPC: 0.206 (Simulation time: 00 hr 22 min 14 sec)

ChampSim completed all CPUs

=== Simulation ===
CPU 0 runs traces/473.astar-359B.champsimtrace.xz

Region of Interest Statistics

CPU 0 cumulative IPC: 0.206 instructions: 50000002 cycles: 242688060
CPU 0 Branch Prediction Accuracy: 93.2% MPKI: 13.43 Average ROB Occupancy at Mispredict: 44.43
Branch type MPKI
BRANCH_DIRECT_JUMP: 0
BRANCH_INDIRECT: 0
BRANCH_CONDITIONAL: 13.42
BRANCH_DIRECT_CALL: 0
BRANCH_INDIRECT_CALL: 0.00054
BRANCH_RETURN: 0

cpu0->cpu0_STLB TOTAL        ACCESS:    1275677 HIT:     889419 MISS:     386258 MSHR_MERGE:          0
cpu0->cpu0_STLB LOAD         ACCESS:    1275677 HIT:     889419 MISS:     386258 MSHR_MERGE:          0
cpu0->cpu0_STLB RFO          ACCESS:          0 HIT:          0 MISS:          0 MSHR_MERGE:          0
cpu0->cpu0_STLB PREFETCH     ACCESS:          0 HIT:          0 MISS:          0 MSHR_MERGE:          0
cpu0->cpu0_STLB WRITE        ACCESS:          0 HIT:          0 MISS:          0 MSHR_MERGE:          0
cpu0->cpu0_STLB TRANSLATION  ACCESS:          0 HIT:          0 MISS:          0 MSHR_MERGE:          0
cpu0->cpu0_STLB PREFETCH REQUESTED:          0 ISSUED:          0 USEFUL:          0 USELESS:          0
cpu0->cpu0_STLB AVERAGE MISS LATENCY: 468.1 cycles
cpu0->cpu0_L2C TOTAL        ACCESS:    4361107 HIT:    1957128 MISS:    2403979 MSHR_MERGE:          0
cpu0->cpu0_L2C LOAD         ACCESS:    1775419 HIT:     732550 MISS:    1042869 MSHR_MERGE:          0
cpu0->cpu0_L2C RFO          ACCESS:     767643 HIT:      47695 MISS:     719948 MSHR_MERGE:          0
cpu0->cpu0_L2C PREFETCH     ACCESS:          0 HIT:          0 MISS:          0 MSHR_MERGE:          0
cpu0->cpu0_L2C WRITE        ACCESS:    1168875 HIT:    1168841 MISS:         34 MSHR_MERGE:          0
cpu0->cpu0_L2C TRANSLATION  ACCESS:     649170 HIT:       8042 MISS:     641128 MSHR_MERGE:          0
cpu0->cpu0_L2C PREFETCH REQUESTED:          0 ISSUED:          0 USEFUL:          0 USELESS:          0
cpu0->cpu0_L2C AVERAGE MISS LATENCY: 208.8 cycles
cpu0->cpu0_L1I TOTAL        ACCESS:     831673 HIT:     831666 MISS:          7 MSHR_MERGE:          0
cpu0->cpu0_L1I LOAD         ACCESS:     831673 HIT:     831666 MISS:          7 MSHR_MERGE:          0
cpu0->cpu0_L1I RFO          ACCESS:          0 HIT:          0 MISS:          0 MSHR_MERGE:          0
cpu0->cpu0_L1I PREFETCH     ACCESS:          0 HIT:          0 MISS:          0 MSHR_MERGE:          0
cpu0->cpu0_L1I WRITE        ACCESS:          0 HIT:          0 MISS:          0 MSHR_MERGE:          0
cpu0->cpu0_L1I TRANSLATION  ACCESS:          0 HIT:          0 MISS:          0 MSHR_MERGE:          0
cpu0->cpu0_L1I PREFETCH REQUESTED:          0 ISSUED:          0 USEFUL:          0 USELESS:          0
cpu0->cpu0_L1I AVERAGE MISS LATENCY: 178.1 cycles
cpu0->cpu0_L1D TOTAL        ACCESS:   19890531 HIT:   15904262 MISS:    3986269 MSHR_MERGE:     794042
cpu0->cpu0_L1D LOAD         ACCESS:   12801091 HIT:   10321420 MISS:    2479671 MSHR_MERGE:     704257
cpu0->cpu0_L1D RFO          ACCESS:          0 HIT:          0 MISS:          0 MSHR_MERGE:          0
cpu0->cpu0_L1D PREFETCH     ACCESS:          0 HIT:          0 MISS:          0 MSHR_MERGE:          0
cpu0->cpu0_L1D WRITE        ACCESS:    6314359 HIT:    5546626 MISS:     767733 MSHR_MERGE:         90
cpu0->cpu0_L1D TRANSLATION  ACCESS:     775081 HIT:      36216 MISS:     738865 MSHR_MERGE:      89695
cpu0->cpu0_L1D PREFETCH REQUESTED:          0 ISSUED:          0 USEFUL:          0 USELESS:          0
cpu0->cpu0_L1D AVERAGE MISS LATENCY: 166 cycles
cpu0->cpu0_ITLB TOTAL        ACCESS:     829104 HIT:     829104 MISS:          0 MSHR_MERGE:          0
cpu0->cpu0_ITLB LOAD         ACCESS:     829104 HIT:     829104 MISS:          0 MSHR_MERGE:          0
cpu0->cpu0_ITLB RFO          ACCESS:          0 HIT:          0 MISS:          0 MSHR_MERGE:          0
cpu0->cpu0_ITLB PREFETCH     ACCESS:          0 HIT:          0 MISS:          0 MSHR_MERGE:          0
cpu0->cpu0_ITLB WRITE        ACCESS:          0 HIT:          0 MISS:          0 MSHR_MERGE:          0
cpu0->cpu0_ITLB TRANSLATION  ACCESS:          0 HIT:          0 MISS:          0 MSHR_MERGE:          0
cpu0->cpu0_ITLB PREFETCH REQUESTED:          0 ISSUED:          0 USEFUL:          0 USELESS:          0
cpu0->cpu0_ITLB AVERAGE MISS LATENCY: - cycles
cpu0->cpu0_DTLB TOTAL        ACCESS:   18170658 HIT:   16304173 MISS:    1866485 MSHR_MERGE:     590808
cpu0->cpu0_DTLB LOAD         ACCESS:   18170658 HIT:   16304173 MISS:    1866485 MSHR_MERGE:     590808
cpu0->cpu0_DTLB RFO          ACCESS:          0 HIT:          0 MISS:          0 MSHR_MERGE:          0
cpu0->cpu0_DTLB PREFETCH     ACCESS:          0 HIT:          0 MISS:          0 MSHR_MERGE:          0
cpu0->cpu0_DTLB WRITE        ACCESS:          0 HIT:          0 MISS:          0 MSHR_MERGE:          0
cpu0->cpu0_DTLB TRANSLATION  ACCESS:          0 HIT:          0 MISS:          0 MSHR_MERGE:          0
cpu0->cpu0_DTLB PREFETCH REQUESTED:          0 ISSUED:          0 USEFUL:          0 USELESS:          0
cpu0->cpu0_DTLB AVERAGE MISS LATENCY: 146 cycles
cpu0->LLC TOTAL        ACCESS:    3523344 HIT:    1018314 MISS:    2505030 MSHR_MERGE:          0
cpu0->LLC LOAD         ACCESS:    1042869 HIT:     215968 MISS:     826901 MSHR_MERGE:          0
cpu0->LLC RFO          ACCESS:     719948 HIT:     252568 MISS:     467380 MSHR_MERGE:          0
cpu0->LLC PREFETCH     ACCESS:          0 HIT:          0 MISS:          0 MSHR_MERGE:          0
cpu0->LLC WRITE        ACCESS:    1119399 HIT:     453510 MISS:     665889 MSHR_MERGE:          0
cpu0->LLC TRANSLATION  ACCESS:     641128 HIT:      96268 MISS:     544860 MSHR_MERGE:          0
cpu0->LLC PREFETCH REQUESTED:          0 ISSUED:          0 USEFUL:          0 USELESS:          0
cpu0->LLC AVERAGE MISS LATENCY: 186.7 cycles

DRAM Statistics

Channel 0 RQ ROW_BUFFER_HIT:      57367
  ROW_BUFFER_MISS:    1781656
  AVG DBUS CONGESTED CYCLE: 20.03
Channel 0 WQ ROW_BUFFER_HIT:     107917
  ROW_BUFFER_MISS:     581043
  FULL:          0
Channel 0 REFRESHES ISSUED:      20224
