[VMEM] WARNING: physical memory size is smaller than virtual memory size.
WARNING: option --warmup_instructions is deprecated. Use --warmup-instructions instead.
WARNING: option --simulation_instructions is deprecated. Use --simulation-instructions instead.

*** ChampSim Multicore Out-of-Order Simulator ***
Warmup Instructions: 20000000
Simulation Instructions: 50000000
Number of CPUs: 1
Page size: 8192

Off-chip DRAM Size: 16 GiB Channels: 1 Width: 64-bit Data Rate: 3205 MT/s
Heartbeat CPU 0 instructions: 10000003 cycles: 6161661 heartbeat IPC: 1.623 cumulative IPC: 1.623 (Simulation time: 00 hr 01 min 04 sec)
Heartbeat CPU 0 instructions: 20000003 cycles: 12122035 heartbeat IPC: 1.678 cumulative IPC: 1.65 (Simulation time: 00 hr 02 min 14 sec)
Warmup finished CPU 0 instructions: 20000003 cycles: 12122035 cumulative IPC: 1.65 (Simulation time: 00 hr 02 min 14 sec)
Warmup complete CPU 0 instructions: 20000003 cycles: 12122035 cumulative IPC: 1.65 (Simulation time: 00 hr 02 min 14 sec)
Heartbeat CPU 0 instructions: 30000004 cycles: 27743558 heartbeat IPC: 0.6401 cumulative IPC: 0.6401 (Simulation time: 00 hr 04 min 02 sec)
Heartbeat CPU 0 instructions: 40000007 cycles: 36909922 heartbeat IPC: 1.091 cumulative IPC: 0.8068 (Simulation time: 00 hr 05 min 15 sec)
Heartbeat CPU 0 instructions: 50000007 cycles: 49520322 heartbeat IPC: 0.793 cumulative IPC: 0.8022 (Simulation time: 00 hr 06 min 46 sec)
Heartbeat CPU 0 instructions: 60000010 cycles: 68549122 heartbeat IPC: 0.5255 cumulative IPC: 0.7089 (Simulation time: 00 hr 08 min 57 sec)
Simulation finished CPU 0 instructions: 50000003 cycles: 68622478 cumulative IPC: 0.7286 (Simulation time: 00 hr 10 min 28 sec)
Simulation complete CPU 0 instructions: 50000003 cycles: 68622478 cumulative IPC: 0.7286 (Simulation time: 00 hr 10 min 28 sec)

ChampSim completed all CPUs

=== Simulation ===
CPU 0 runs traces/429.mcf-217B.champsimtrace.xz

Region of Interest Statistics

CPU 0 cumulative IPC: 0.7286 instructions: 50000003 cycles: 68622478
CPU 0 Branch Prediction Accuracy: 98.95% MPKI: 1.194 Average ROB Occupancy at Mispredict: 124.3
Branch type MPKI
BRANCH_DIRECT_JUMP: 0
BRANCH_INDIRECT: 0
BRANCH_CONDITIONAL: 1.194
BRANCH_DIRECT_CALL: 0
BRANCH_INDIRECT_CALL: 0
BRANCH_RETURN: 0

cpu0->cpu0_STLB TOTAL        ACCESS:      58087 HIT:      56237 MISS:       1850 MSHR_MERGE:          0
cpu0->cpu0_STLB LOAD         ACCESS:      58087 HIT:      56237 MISS:       1850 MSHR_MERGE:          0
cpu0->cpu0_STLB RFO          ACCESS:          0 HIT:          0 MISS:          0 MSHR_MERGE:          0
cpu0->cpu0_STLB PREFETCH     ACCESS:          0 HIT:          0 MISS:          0 MSHR_MERGE:          0
cpu0->cpu0_STLB WRITE        ACCESS:          0 HIT:          0 MISS:          0 MSHR_MERGE:          0
cpu0->cpu0_STLB TRANSLATION  ACCESS:          0 HIT:          0 MISS:          0 MSHR_MERGE:          0
cpu0->cpu0_STLB PREFETCH REQUESTED:          0 ISSUED:          0 USEFUL:          0 USELESS:          0
cpu0->cpu0_STLB AVERAGE MISS LATENCY: 701.1 cycles
cpu0->cpu0_L2C TOTAL        ACCESS:   10129893 HIT:    4324926 MISS:    5804967 MSHR_MERGE:    2969954
cpu0->cpu0_L2C LOAD         ACCESS:    2598417 HIT:    1806186 MISS:     792231 MSHR_MERGE:     621424
cpu0->cpu0_L2C RFO          ACCESS:       1568 HIT:       1432 MISS:        136 MSHR_MERGE:          0
cpu0->cpu0_L2C PREFETCH     ACCESS:    7430302 HIT:    2421325 MISS:    5008977 MSHR_MERGE:    2348530
cpu0->cpu0_L2C WRITE        ACCESS:      96213 HIT:      95498 MISS:        715 MSHR_MERGE:          0
cpu0->cpu0_L2C TRANSLATION  ACCESS:       3393 HIT:        485 MISS:       2908 MSHR_MERGE:          0
cpu0->cpu0_L2C PREFETCH REQUESTED:    7436205 ISSUED:    7430287 USEFUL:    2408205 USELESS:     156465
cpu0->cpu0_L2C AVERAGE MISS LATENCY: 75.05 cycles
cpu0->cpu0_L1I TOTAL        ACCESS:    8991463 HIT:    8991463 MISS:          0 MSHR_MERGE:          0
cpu0->cpu0_L1I LOAD         ACCESS:    8991463 HIT:    8991463 MISS:          0 MSHR_MERGE:          0
cpu0->cpu0_L1I RFO          ACCESS:          0 HIT:          0 MISS:          0 MSHR_MERGE:          0
cpu0->cpu0_L1I PREFETCH     ACCESS:          0 HIT:          0 MISS:          0 MSHR_MERGE:          0
cpu0->cpu0_L1I WRITE        ACCESS:          0 HIT:          0 MISS:          0 MSHR_MERGE:          0
cpu0->cpu0_L1I TRANSLATION  ACCESS:          0 HIT:          0 MISS:          0 MSHR_MERGE:          0
cpu0->cpu0_L1I PREFETCH REQUESTED:          0 ISSUED:          0 USEFUL:          0 USELESS:          0
cpu0->cpu0_L1I AVERAGE MISS LATENCY: - cycles
cpu0->cpu0_L1D TOTAL        ACCESS:   16458707 HIT:   13757132 MISS:    2701575 MSHR_MERGE:      98166
cpu0->cpu0_L1D LOAD         ACCESS:    8600259 HIT:    5905713 MISS:    2694546 MSHR_MERGE:      96098
cpu0->cpu0_L1D RFO          ACCESS:          0 HIT:          0 MISS:          0 MSHR_MERGE:          0
cpu0->cpu0_L1D PREFETCH     ACCESS:          0 HIT:          0 MISS:          0 MSHR_MERGE:          0
cpu0->cpu0_L1D WRITE        ACCESS:    7854741 HIT:    7851105 MISS:       3636 MSHR_MERGE:       2068
cpu0->cpu0_L1D TRANSLATION  ACCESS:       3707 HIT:        314 MISS:       3393 MSHR_MERGE:          0
cpu0->cpu0_L1D PREFETCH REQUESTED:          0 ISSUED:          0 USEFUL:          0 USELESS:          0
cpu0->cpu0_L1D AVERAGE MISS LATENCY: 31.27 cycles
cpu0->cpu0_ITLB TOTAL        ACCESS:    7844380 HIT:    7844380 MISS:          0 MSHR_MERGE:          0
cpu0->cpu0_ITLB LOAD         ACCESS:    7844380 HIT:    7844380 MISS:          0 MSHR_MERGE:          0
cpu0->cpu0_ITLB RFO          ACCESS:          0 HIT:          0 MISS:          0 MSHR_MERGE:          0
cpu0->cpu0_ITLB PREFETCH     ACCESS:          0 HIT:          0 MISS:          0 MSHR_MERGE:          0
cpu0->cpu0_ITLB WRITE        ACCESS:          0 HIT:          0 MISS:          0 MSHR_MERGE:          0
cpu0->cpu0_ITLB TRANSLATION  ACCESS:          0 HIT:          0 MISS:          0 MSHR_MERGE:          0
cpu0->cpu0_ITLB PREFETCH REQUESTED:          0 ISSUED:          0 USEFUL:          0 USELESS:          0
cpu0->cpu0_ITLB AVERAGE MISS LATENCY: - cycles
cpu0->cpu0_DTLB TOTAL        ACCESS:   14952999 HIT:   14879330 MISS:      73669 MSHR_MERGE:      15582
cpu0->cpu0_DTLB LOAD         ACCESS:   14952999 HIT:   14879330 MISS:      73669 MSHR_MERGE:      15582
cpu0->cpu0_DTLB RFO          ACCESS:          0 HIT:          0 MISS:          0 MSHR_MERGE:          0
cpu0->cpu0_DTLB PREFETCH     ACCESS:          0 HIT:          0 MISS:          0 MSHR_MERGE:          0
cpu0->cpu0_DTLB WRITE        ACCESS:          0 HIT:          0 MISS:          0 MSHR_MERGE:          0
cpu0->cpu0_DTLB TRANSLATION  ACCESS:          0 HIT:          0 MISS:          0 MSHR_MERGE:          0
cpu0->cpu0_DTLB PREFETCH REQUESTED:          0 ISSUED:          0 USEFUL:          0 USELESS:          0
cpu0->cpu0_DTLB AVERAGE MISS LATENCY: 26.36 cycles
cpu0->LLC TOTAL        ACCESS:    2915025 HIT:     748991 MISS:    2166034 MSHR_MERGE:      58013
cpu0->LLC LOAD         ACCESS:     170807 HIT:      22101 MISS:     148706 MSHR_MERGE:         23
cpu0->LLC RFO          ACCESS:        136 HIT:        106 MISS:         30 MSHR_MERGE:          0
cpu0->LLC PREFETCH     ACCESS:    2660447 HIT:     707953 MISS:    1952494 MSHR_MERGE:      57990
cpu0->LLC WRITE        ACCESS:      80727 HIT:      18825 MISS:      61902 MSHR_MERGE:          0
cpu0->LLC TRANSLATION  ACCESS:       2908 HIT:          6 MISS:       2902 MSHR_MERGE:          0
cpu0->LLC PREFETCH REQUESTED:          0 ISSUED:          0 USEFUL:          0 USELESS:          0
cpu0->LLC AVERAGE MISS LATENCY: 113.4 cycles

DRAM Statistics

Channel 0 RQ ROW_BUFFER_HIT:     208275
  ROW_BUFFER_MISS:    1837410
  AVG DBUS CONGESTED CYCLE: 6.576
Channel 0 WQ ROW_BUFFER_HIT:      11509
  ROW_BUFFER_MISS:      65473
  FULL:          0
Channel 0 REFRESHES ISSUED:       5718
