[VMEM] WARNING: physical memory size is smaller than virtual memory size.
WARNING: option --warmup_instructions is deprecated. Use --warmup-instructions instead.
WARNING: option --simulation_instructions is deprecated. Use --simulation-instructions instead.

*** ChampSim Multicore Out-of-Order Simulator ***
Warmup Instructions: 20000000
Simulation Instructions: 50000000
Number of CPUs: 1
Page size: 8192

Off-chip DRAM Size: 16 GiB Channels: 1 Width: 64-bit Data Rate: 3205 MT/s
Heartbeat CPU 0 instructions: 10000001 cycles: 4633169 heartbeat IPC: 2.158 cumulative IPC: 2.158 (Simulation time: 00 hr 00 min 45 sec)
Heartbeat CPU 0 instructions: 20000002 cycles: 9212623 heartbeat IPC: 2.184 cumulative IPC: 2.171 (Simulation time: 00 hr 01 min 29 sec)
Warmup finished CPU 0 instructions: 20000002 cycles: 9212623 cumulative IPC: 2.171 (Simulation time: 00 hr 01 min 29 sec)
Warmup complete CPU 0 instructions: 20000002 cycles: 9212623 cumulative IPC: 2.171 (Simulation time: 00 hr 01 min 29 sec)
Heartbeat CPU 0 instructions: 30000005 cycles: 34178273 heartbeat IPC: 0.4006 cumulative IPC: 0.4006 (Simulation time: 00 hr 03 min 10 sec)
Heartbeat CPU 0 instructions: 40000005 cycles: 59022983 heartbeat IPC: 0.4025 cumulative IPC: 0.4015 (Simulation time: 00 hr 04 min 50 sec)
Heartbeat CPU 0 instructions: 50000007 cycles: 84154032 heartbeat IPC: 0.3979 cumulative IPC: 0.4003 (Simulation time: 00 hr 06 min 33 sec)
Heartbeat CPU 0 instructions: 60000007 cycles: 109103775 heartbeat IPC: 0.4008 cumulative IPC: 0.4004 (Simulation time: 00 hr 08 min 14 sec)
Simulation finished CPU 0 instructions: 50000001 cycles: 125381243 cumulative IPC: 0.3988 (Simulation time: 00 hr 09 min 57 sec)
Simulation complete CPU 0 instructions: 50000001 cycles: 125381243 cumulative IPC: 0.3988 (Simulation time: 00 hr 09 min 57 sec)

ChampSim completed all CPUs

=== Simulation ===
CPU 0 runs traces/605.mcf_s-1152B.champsimtrace.xz

Region of Interest Statistics

CPU 0 cumulative IPC: 0.3988 instructions: 50000001 cycles: 125381243
CPU 0 Branch Prediction Accuracy: 90.19% MPKI: 24.48 Average ROB Occupancy at Mispredict: 21.39
Branch type MPKI
BRANCH_DIRECT_JUMP: 0.2057
BRANCH_INDIRECT: 0
BRANCH_CONDITIONAL: 24.27
BRANCH_DIRECT_CALL: 0
BRANCH_INDIRECT_CALL: 0.0036
BRANCH_RETURN: 2e-05

cpu0->cpu0_STLB TOTAL        ACCESS:    1006124 HIT:    1000367 MISS:       5757 MSHR_MERGE:          0
cpu0->cpu0_STLB LOAD         ACCESS:    1006124 HIT:    1000367 MISS:       5757 MSHR_MERGE:          0
cpu0->cpu0_STLB RFO          ACCESS:          0 HIT:          0 MISS:          0 MSHR_MERGE:          0
cpu0->cpu0_STLB PREFETCH     ACCESS:          0 HIT:          0 MISS:          0 MSHR_MERGE:          0
cpu0->cpu0_STLB WRITE        ACCESS:          0 HIT:          0 MISS:          0 MSHR_MERGE:          0
cpu0->cpu0_STLB TRANSLATION  ACCESS:          0 HIT:          0 MISS:          0 MSHR_MERGE:          0
cpu0->cpu0_STLB PREFETCH REQUESTED:          0 ISSUED:          0 USEFUL:          0 USELESS:          0
cpu0->cpu0_STLB AVERAGE MISS LATENCY: 543.8 cycles
cpu0->cpu0_L2C TOTAL        ACCESS:    9288792 HIT:    3541943 MISS:    5746849 MSHR_MERGE:     176458
cpu0->cpu0_L2C LOAD         ACCESS:    2552737 HIT:    1098363 MISS:    1454374 MSHR_MERGE:      31141
cpu0->cpu0_L2C RFO          ACCESS:     187387 HIT:      25396 MISS:     161991 MSHR_MERGE:          1
cpu0->cpu0_L2C PREFETCH     ACCESS:    6274574 HIT:    2154101 MISS:    4120473 MSHR_MERGE:     145316
cpu0->cpu0_L2C WRITE        ACCESS:     265744 HIT:     262644 MISS:       3100 MSHR_MERGE:          0
cpu0->cpu0_L2C TRANSLATION  ACCESS:       8350 HIT:       1439 MISS:       6911 MSHR_MERGE:          0
cpu0->cpu0_L2C PREFETCH REQUESTED:    6275789 ISSUED:    6274574 USEFUL:     820686 USELESS:    3154247
cpu0->cpu0_L2C AVERAGE MISS LATENCY: 39.39 cycles
cpu0->cpu0_L1I TOTAL        ACCESS:     434916 HIT:     434916 MISS:          0 MSHR_MERGE:          0
cpu0->cpu0_L1I LOAD         ACCESS:     434916 HIT:     434916 MISS:          0 MSHR_MERGE:          0
cpu0->cpu0_L1I RFO          ACCESS:          0 HIT:          0 MISS:          0 MSHR_MERGE:          0
cpu0->cpu0_L1I PREFETCH     ACCESS:          0 HIT:          0 MISS:          0 MSHR_MERGE:          0
cpu0->cpu0_L1I WRITE        ACCESS:          0 HIT:          0 MISS:          0 MSHR_MERGE:          0
cpu0->cpu0_L1I TRANSLATION  ACCESS:          0 HIT:          0 MISS:          0 MSHR_MERGE:          0
cpu0->cpu0_L1I PREFETCH REQUESTED:          0 ISSUED:          0 USEFUL:          0 USELESS:          0
cpu0->cpu0_L1I AVERAGE MISS LATENCY: - cycles
cpu0->cpu0_L1D TOTAL        ACCESS:   17981118 HIT:   14386252 MISS:    3594866 MSHR_MERGE:     846387
cpu0->cpu0_L1D LOAD         ACCESS:   12805178 HIT:    9724352 MISS:    3080826 MSHR_MERGE:     528088
cpu0->cpu0_L1D RFO          ACCESS:          0 HIT:          0 MISS:          0 MSHR_MERGE:          0
cpu0->cpu0_L1D PREFETCH     ACCESS:          0 HIT:          0 MISS:          0 MSHR_MERGE:          0
cpu0->cpu0_L1D WRITE        ACCESS:    5164330 HIT:    4658640 MISS:     505690 MSHR_MERGE:     318299
cpu0->cpu0_L1D TRANSLATION  ACCESS:      11610 HIT:       3260 MISS:       8350 MSHR_MERGE:          0
cpu0->cpu0_L1D PREFETCH REQUESTED:          0 ISSUED:          0 USEFUL:          0 USELESS:          0
cpu0->cpu0_L1D AVERAGE MISS LATENCY: 32.27 cycles
cpu0->cpu0_ITLB TOTAL        ACCESS:     403422 HIT:     403422 MISS:          0 MSHR_MERGE:          0
cpu0->cpu0_ITLB LOAD         ACCESS:     403422 HIT:     403422 MISS:          0 MSHR_MERGE:          0
cpu0->cpu0_ITLB RFO          ACCESS:          0 HIT:          0 MISS:          0 MSHR_MERGE:          0
cpu0->cpu0_ITLB PREFETCH     ACCESS:          0 HIT:          0 MISS:          0 MSHR_MERGE:          0
cpu0->cpu0_ITLB WRITE        ACCESS:          0 HIT:          0 MISS:          0 MSHR_MERGE:          0
cpu0->cpu0_ITLB TRANSLATION  ACCESS:          0 HIT:          0 MISS:          0 MSHR_MERGE:          0
cpu0->cpu0_ITLB PREFETCH REQUESTED:          0 ISSUED:          0 USEFUL:          0 USELESS:          0
cpu0->cpu0_ITLB AVERAGE MISS LATENCY: - cycles
cpu0->cpu0_DTLB TOTAL        ACCESS:   16841716 HIT:   15648333 MISS:    1193383 MSHR_MERGE:     187259
cpu0->cpu0_DTLB LOAD         ACCESS:   16841716 HIT:   15648333 MISS:    1193383 MSHR_MERGE:     187259
cpu0->cpu0_DTLB RFO          ACCESS:          0 HIT:          0 MISS:          0 MSHR_MERGE:          0
cpu0->cpu0_DTLB PREFETCH     ACCESS:          0 HIT:          0 MISS:          0 MSHR_MERGE:          0
cpu0->cpu0_DTLB WRITE        ACCESS:          0 HIT:          0 MISS:          0 MSHR_MERGE:          0
cpu0->cpu0_DTLB TRANSLATION  ACCESS:          0 HIT:          0 MISS:          0 MSHR_MERGE:          0
cpu0->cpu0_DTLB PREFETCH REQUESTED:          0 ISSUED:          0 USEFUL:          0 USELESS:          0
cpu0->cpu0_DTLB AVERAGE MISS LATENCY: 7.117 cycles
cpu0->LLC TOTAL        ACCESS:    5787940 HIT:    3255677 MISS:    2532263 MSHR_MERGE:          0
cpu0->LLC LOAD         ACCESS:    1423233 HIT:    1027313 MISS:     395920 MSHR_MERGE:          0
cpu0->LLC RFO          ACCESS:     161990 HIT:     149277 MISS:      12713 MSHR_MERGE:          0
cpu0->LLC PREFETCH     ACCESS:    3975156 HIT:    1873089 MISS:    2102067 MSHR_MERGE:          0
cpu0->LLC WRITE        ACCESS:     220650 HIT:     205967 MISS:      14683 MSHR_MERGE:          0
cpu0->LLC TRANSLATION  ACCESS:       6911 HIT:         31 MISS:       6880 MSHR_MERGE:          0
cpu0->LLC PREFETCH REQUESTED:          0 ISSUED:          0 USEFUL:          0 USELESS:          0
cpu0->LLC AVERAGE MISS LATENCY: 86.57 cycles

DRAM Statistics

Channel 0 RQ ROW_BUFFER_HIT:      92512
  ROW_BUFFER_MISS:    2424988
  AVG DBUS CONGESTED CYCLE: 5.412
Channel 0 WQ ROW_BUFFER_HIT:       5741
  ROW_BUFFER_MISS:      16365
  FULL:          0
Channel 0 REFRESHES ISSUED:      10449
