[VMEM] WARNING: physical memory size is smaller than virtual memory size.
WARNING: option --warmup_instructions is deprecated. Use --warmup-instructions instead.
WARNING: option --simulation_instructions is deprecated. Use --simulation-instructions instead.

*** ChampSim Multicore Out-of-Order Simulator ***
Warmup Instructions: 20000000
Simulation Instructions: 50000000
Number of CPUs: 1
Page size: 8192

Off-chip DRAM Size: 16 GiB Channels: 1 Width: 64-bit Data Rate: 3205 MT/s
Heartbeat CPU 0 instructions: 10000003 cycles: 6086401 heartbeat IPC: 1.643 cumulative IPC: 1.643 (Simulation time: 00 hr 00 min 52 sec)
Heartbeat CPU 0 instructions: 20000003 cycles: 12017678 heartbeat IPC: 1.686 cumulative IPC: 1.664 (Simulation time: 00 hr 01 min 47 sec)
Warmup finished CPU 0 instructions: 20000003 cycles: 12017678 cumulative IPC: 1.664 (Simulation time: 00 hr 01 min 47 sec)
Warmup complete CPU 0 instructions: 20000003 cycles: 12017678 cumulative IPC: 1.664 (Simulation time: 00 hr 01 min 47 sec)
Heartbeat CPU 0 instructions: 30000003 cycles: 27060149 heartbeat IPC: 0.6648 cumulative IPC: 0.6648 (Simulation time: 00 hr 03 min 19 sec)
Heartbeat CPU 0 instructions: 40000005 cycles: 35798811 heartbeat IPC: 1.144 cumulative IPC: 0.841 (Simulation time: 00 hr 04 min 20 sec)
Heartbeat CPU 0 instructions: 50000007 cycles: 47800230 heartbeat IPC: 0.8332 cumulative IPC: 0.8384 (Simulation time: 00 hr 05 min 34 sec)
Heartbeat CPU 0 instructions: 60000010 cycles: 65987029 heartbeat IPC: 0.5498 cumulative IPC: 0.7412 (Simulation time: 00 hr 07 min 16 sec)
Simulation finished CPU 0 instructions: 50000003 cycles: 65531182 cumulative IPC: 0.763 (Simulation time: 00 hr 08 min 28 sec)
Simulation complete CPU 0 instructions: 50000003 cycles: 65531182 cumulative IPC: 0.763 (Simulation time: 00 hr 08 min 28 sec)

ChampSim completed all CPUs

=== Simulation ===
CPU 0 runs traces/429.mcf-217B.champsimtrace.xz

Region of Interest Statistics

CPU 0 cumulative IPC: 0.763 instructions: 50000003 cycles: 65531182
CPU 0 Branch Prediction Accuracy: 98.95% MPKI: 1.194 Average ROB Occupancy at Mispredict: 121
Branch type MPKI
BRANCH_DIRECT_JUMP: 0
BRANCH_INDIRECT: 0
BRANCH_CONDITIONAL: 1.194
BRANCH_DIRECT_CALL: 0
BRANCH_INDIRECT_CALL: 0
BRANCH_RETURN: 0

cpu0->cpu0_STLB TOTAL        ACCESS:      58066 HIT:      56216 MISS:       1850 MSHR_MERGE:          0
cpu0->cpu0_STLB LOAD         ACCESS:      58066 HIT:      56216 MISS:       1850 MSHR_MERGE:          0
cpu0->cpu0_STLB RFO          ACCESS:          0 HIT:          0 MISS:          0 MSHR_MERGE:          0
cpu0->cpu0_STLB PREFETCH     ACCESS:          0 HIT:          0 MISS:          0 MSHR_MERGE:          0
cpu0->cpu0_STLB WRITE        ACCESS:          0 HIT:          0 MISS:          0 MSHR_MERGE:          0
cpu0->cpu0_STLB TRANSLATION  ACCESS:          0 HIT:          0 MISS:          0 MSHR_MERGE:          0
cpu0->cpu0_STLB PREFETCH REQUESTED:          0 ISSUED:          0 USEFUL:          0 USELESS:          0
cpu0->cpu0_STLB AVERAGE MISS LATENCY: 592.8 cycles
cpu0->cpu0_L2C TOTAL        ACCESS:    9550979 HIT:    3938814 MISS:    5612165 MSHR_MERGE:    2698608
cpu0->cpu0_L2C LOAD         ACCESS:    2598448 HIT:    1717582 MISS:     880866 MSHR_MERGE:     557326
cpu0->cpu0_L2C RFO          ACCESS:       1567 HIT:       1423 MISS:        144 MSHR_MERGE:          0
cpu0->cpu0_L2C PREFETCH     ACCESS:    6851346 HIT:    2123866 MISS:    4727480 MSHR_MERGE:    2141282
cpu0->cpu0_L2C WRITE        ACCESS:      96224 HIT:      95459 MISS:        765 MSHR_MERGE:          0
cpu0->cpu0_L2C TRANSLATION  ACCESS:       3394 HIT:        484 MISS:       2910 MSHR_MERGE:          0
cpu0->cpu0_L2C PREFETCH REQUESTED:    6851558 ISSUED:    6851330 USEFUL:    2255968 USELESS:     330337
cpu0->cpu0_L2C AVERAGE MISS LATENCY: 52.35 cycles
cpu0->cpu0_L1I TOTAL        ACCESS:    9396714 HIT:    9396714 MISS:          0 MSHR_MERGE:          0
cpu0->cpu0_L1I LOAD         ACCESS:    9396714 HIT:    9396714 MISS:          0 MSHR_MERGE:          0
cpu0->cpu0_L1I RFO          ACCESS:          0 HIT:          0 MISS:          0 MSHR_MERGE:          0
cpu0->cpu0_L1I PREFETCH     ACCESS:          0 HIT:          0 MISS:          0 MSHR_MERGE:          0
cpu0->cpu0_L1I WRITE        ACCESS:          0 HIT:          0 MISS:          0 MSHR_MERGE:          0
cpu0->cpu0_L1I TRANSLATION  ACCESS:          0 HIT:          0 MISS:          0 MSHR_MERGE:          0
cpu0->cpu0_L1I PREFETCH REQUESTED:          0 ISSUED:          0 USEFUL:          0 USELESS:          0
cpu0->cpu0_L1I AVERAGE MISS LATENCY: - cycles
cpu0->cpu0_L1D TOTAL        ACCESS:   16489373 HIT:   13785554 MISS:    2703819 MSHR_MERGE:     100376
cpu0->cpu0_L1D LOAD         ACCESS:    8608870 HIT:    5912056 MISS:    2696814 MSHR_MERGE:      98332
cpu0->cpu0_L1D RFO          ACCESS:          0 HIT:          0 MISS:          0 MSHR_MERGE:          0
cpu0->cpu0_L1D PREFETCH     ACCESS:          0 HIT:          0 MISS:          0 MSHR_MERGE:          0
cpu0->cpu0_L1D WRITE        ACCESS:    7876796 HIT:    7873185 MISS:       3611 MSHR_MERGE:       2044
cpu0->cpu0_L1D TRANSLATION  ACCESS:       3707 HIT:        313 MISS:       3394 MSHR_MERGE:          0
cpu0->cpu0_L1D PREFETCH REQUESTED:          0 ISSUED:          0 USEFUL:          0 USELESS:          0
cpu0->cpu0_L1D AVERAGE MISS LATENCY: 26.15 cycles
cpu0->cpu0_ITLB TOTAL        ACCESS:    8225546 HIT:    8225546 MISS:          0 MSHR_MERGE:          0
cpu0->cpu0_ITLB LOAD         ACCESS:    8225546 HIT:    8225546 MISS:          0 MSHR_MERGE:          0
cpu0->cpu0_ITLB RFO          ACCESS:          0 HIT:          0 MISS:          0 MSHR_MERGE:          0
cpu0->cpu0_ITLB PREFETCH     ACCESS:          0 HIT:          0 MISS:          0 MSHR_MERGE:          0
cpu0->cpu0_ITLB WRITE        ACCESS:          0 HIT:          0 MISS:          0 MSHR_MERGE:          0
cpu0->cpu0_ITLB TRANSLATION  ACCESS:          0 HIT:          0 MISS:          0 MSHR_MERGE:          0
cpu0->cpu0_ITLB PREFETCH REQUESTED:          0 ISSUED:          0 USEFUL:          0 USELESS:          0
cpu0->cpu0_ITLB AVERAGE MISS LATENCY: - cycles
cpu0->cpu0_DTLB TOTAL        ACCESS:   14964522 HIT:   14890383 MISS:      74139 MSHR_MERGE:      16073
cpu0->cpu0_DTLB LOAD         ACCESS:   14964522 HIT:   14890383 MISS:      74139 MSHR_MERGE:      16073
cpu0->cpu0_DTLB RFO          ACCESS:          0 HIT:          0 MISS:          0 MSHR_MERGE:          0
cpu0->cpu0_DTLB PREFETCH     ACCESS:          0 HIT:          0 MISS:          0 MSHR_MERGE:          0
cpu0->cpu0_DTLB WRITE        ACCESS:          0 HIT:          0 MISS:          0 MSHR_MERGE:          0
cpu0->cpu0_DTLB TRANSLATION  ACCESS:          0 HIT:          0 MISS:          0 MSHR_MERGE:          0
cpu0->cpu0_DTLB PREFETCH REQUESTED:          0 ISSUED:          0 USEFUL:          0 USELESS:          0
cpu0->cpu0_DTLB AVERAGE MISS LATENCY: 22.92 cycles
cpu0->LLC TOTAL        ACCESS:    2993884 HIT:     616832 MISS:    2377052 MSHR_MERGE:          0
cpu0->LLC LOAD         ACCESS:     323540 HIT:      61121 MISS:     262419 MSHR_MERGE:          0
cpu0->LLC RFO          ACCESS:        144 HIT:        114 MISS:         30 MSHR_MERGE:          0
cpu0->LLC PREFETCH     ACCESS:    2586198 HIT:     536983 MISS:    2049215 MSHR_MERGE:          0
cpu0->LLC WRITE        ACCESS:      81092 HIT:      18609 MISS:      62483 MSHR_MERGE:          0
cpu0->LLC TRANSLATION  ACCESS:       2910 HIT:          5 MISS:       2905 MSHR_MERGE:          0
cpu0->LLC PREFETCH REQUESTED:          0 ISSUED:          0 USEFUL:          0 USELESS:          0
cpu0->LLC AVERAGE MISS LATENCY: 74.34 cycles

DRAM Statistics

Channel 0 RQ ROW_BUFFER_HIT:     292087
  ROW_BUFFER_MISS:    2022240
  AVG DBUS CONGESTED CYCLE: 4.577
Channel 0 WQ ROW_BUFFER_HIT:       9573
  ROW_BUFFER_MISS:      65604
  FULL:          0
Channel 0 REFRESHES ISSUED:       5461
