[VMEM] WARNING: physical memory size is smaller than virtual memory size.
WARNING: option --warmup_instructions is deprecated. Use --warmup-instructions instead.
WARNING: option --simulation_instructions is deprecated. Use --simulation-instructions instead.

*** ChampSim Multicore Out-of-Order Simulator ***
Warmup Instructions: 20000000
Simulation Instructions: 50000000
Number of CPUs: 1
Page size: 8192

Off-chip DRAM Size: 16 GiB Channels: 1 Width: 64-bit Data Rate: 3205 MT/s
Heartbeat CPU 0 instructions: 10000000 cycles: 8241100 heartbeat IPC: 1.213 cumulative IPC: 1.213 (Simulation time: 00 hr 01 min 04 sec)
Heartbeat CPU 0 instructions: 20000000 cycles: 15269869 heartbeat IPC: 1.423 cumulative IPC: 1.31 (Simulation time: 00 hr 02 min 03 sec)
Warmup finished CPU 0 instructions: 20000000 cycles: 15269869 cumulative IPC: 1.31 (Simulation time: 00 hr 02 min 03 sec)
Warmup complete CPU 0 instructions: 20000000 cycles: 15269869 cumulative IPC: 1.31 (Simulation time: 00 hr 02 min 03 sec)
Heartbeat CPU 0 instructions: 30000002 cycles: 36823039 heartbeat IPC: 0.464 cumulative IPC: 0.464 (Simulation time: 00 hr 03 min 47 sec)
Heartbeat CPU 0 instructions: 40000004 cycles: 58364413 heartbeat IPC: 0.4642 cumulative IPC: 0.4641 (Simulation time: 00 hr 05 min 33 sec)
Heartbeat CPU 0 instructions: 50000004 cycles: 79804006 heartbeat IPC: 0.4664 cumulative IPC: 0.4649 (Simulation time: 00 hr 07 min 18 sec)
Heartbeat CPU 0 instructions: 60000007 cycles: 100304606 heartbeat IPC: 0.4878 cumulative IPC: 0.4704 (Simulation time: 00 hr 09 min 00 sec)
Simulation finished CPU 0 instructions: 50000000 cycles: 104851945 cumulative IPC: 0.4769 (Simulation time: 00 hr 10 min 38 sec)
Simulation complete CPU 0 instructions: 50000000 cycles: 104851945 cumulative IPC: 0.4769 (Simulation time: 00 hr 10 min 38 sec)

ChampSim completed all CPUs

=== Simulation ===
CPU 0 runs traces/620.omnetpp_s-874B.champsimtrace.xz

Region of Interest Statistics

CPU 0 cumulative IPC: 0.4769 instructions: 50000000 cycles: 104851945
CPU 0 Branch Prediction Accuracy: 96.16% MPKI: 7.99 Average ROB Occupancy at Mispredict: 58.56
Branch type MPKI
BRANCH_DIRECT_JUMP: 0.9384
BRANCH_INDIRECT: 0.1208
BRANCH_CONDITIONAL: 5.805
BRANCH_DIRECT_CALL: 0.00236
BRANCH_INDIRECT_CALL: 0.7298
BRANCH_RETURN: 0.3936

cpu0->cpu0_STLB TOTAL        ACCESS:     827836 HIT:     690740 MISS:     137096 MSHR_MERGE:          0
cpu0->cpu0_STLB LOAD         ACCESS:     827836 HIT:     690740 MISS:     137096 MSHR_MERGE:          0
cpu0->cpu0_STLB RFO          ACCESS:          0 HIT:          0 MISS:          0 MSHR_MERGE:          0
cpu0->cpu0_STLB PREFETCH     ACCESS:          0 HIT:          0 MISS:          0 MSHR_MERGE:          0
cpu0->cpu0_STLB WRITE        ACCESS:          0 HIT:          0 MISS:          0 MSHR_MERGE:          0
cpu0->cpu0_STLB TRANSLATION  ACCESS:          0 HIT:          0 MISS:          0 MSHR_MERGE:          0
cpu0->cpu0_STLB PREFETCH REQUESTED:          0 ISSUED:          0 USEFUL:          0 USELESS:          0
cpu0->cpu0_STLB AVERAGE MISS LATENCY: 224 cycles
cpu0->cpu0_L2C TOTAL        ACCESS:    3062005 HIT:    1337804 MISS:    1724201 MSHR_MERGE:     119142
cpu0->cpu0_L2C LOAD         ACCESS:     933803 HIT:     360796 MISS:     573007 MSHR_MERGE:      19831
cpu0->cpu0_L2C RFO          ACCESS:     139186 HIT:      59368 MISS:      79818 MSHR_MERGE:       1978
cpu0->cpu0_L2C PREFETCH     ACCESS:    1186671 HIT:     394956 MISS:     791715 MSHR_MERGE:      97333
cpu0->cpu0_L2C WRITE        ACCESS:     508983 HIT:     504967 MISS:       4016 MSHR_MERGE:          0
cpu0->cpu0_L2C TRANSLATION  ACCESS:     293362 HIT:      17717 MISS:     275645 MSHR_MERGE:          0
cpu0->cpu0_L2C PREFETCH REQUESTED:    1186679 ISSUED:    1186671 USEFUL:     173254 USELESS:     521449
cpu0->cpu0_L2C AVERAGE MISS LATENCY: 84.09 cycles
cpu0->cpu0_L1I TOTAL        ACCESS:    7881369 HIT:    7856024 MISS:      25345 MSHR_MERGE:       6881
cpu0->cpu0_L1I LOAD         ACCESS:    7881369 HIT:    7856024 MISS:      25345 MSHR_MERGE:       6881
cpu0->cpu0_L1I RFO          ACCESS:          0 HIT:          0 MISS:          0 MSHR_MERGE:          0
cpu0->cpu0_L1I PREFETCH     ACCESS:          0 HIT:          0 MISS:          0 MSHR_MERGE:          0
cpu0->cpu0_L1I WRITE        ACCESS:          0 HIT:          0 MISS:          0 MSHR_MERGE:          0
cpu0->cpu0_L1I TRANSLATION  ACCESS:          0 HIT:          0 MISS:          0 MSHR_MERGE:          0
cpu0->cpu0_L1I PREFETCH REQUESTED:          0 ISSUED:          0 USEFUL:          0 USELESS:          0
cpu0->cpu0_L1I AVERAGE MISS LATENCY: 22.84 cycles
cpu0->cpu0_L1D TOTAL        ACCESS:   18758233 HIT:   17018299 MISS:    1739934 MSHR_MERGE:     392037
cpu0->cpu0_L1D LOAD         ACCESS:    9417167 HIT:    8315077 MISS:    1102090 MSHR_MERGE:     186750
cpu0->cpu0_L1D RFO          ACCESS:          0 HIT:          0 MISS:          0 MSHR_MERGE:          0
cpu0->cpu0_L1D PREFETCH     ACCESS:          0 HIT:          0 MISS:          0 MSHR_MERGE:          0
cpu0->cpu0_L1D WRITE        ACCESS:    9039791 HIT:    8695639 MISS:     344152 MSHR_MERGE:     204957
cpu0->cpu0_L1D TRANSLATION  ACCESS:     301275 HIT:       7583 MISS:     293692 MSHR_MERGE:        330
cpu0->cpu0_L1D PREFETCH REQUESTED:          0 ISSUED:          0 USEFUL:          0 USELESS:          0
cpu0->cpu0_L1D AVERAGE MISS LATENCY: 66.66 cycles
cpu0->cpu0_ITLB TOTAL        ACCESS:    7219293 HIT:    7219088 MISS:        205 MSHR_MERGE:        101
cpu0->cpu0_ITLB LOAD         ACCESS:    7219293 HIT:    7219088 MISS:        205 MSHR_MERGE:        101
cpu0->cpu0_ITLB RFO          ACCESS:          0 HIT:          0 MISS:          0 MSHR_MERGE:          0
cpu0->cpu0_ITLB PREFETCH     ACCESS:          0 HIT:          0 MISS:          0 MSHR_MERGE:          0
cpu0->cpu0_ITLB WRITE        ACCESS:          0 HIT:          0 MISS:          0 MSHR_MERGE:          0
cpu0->cpu0_ITLB TRANSLATION  ACCESS:          0 HIT:          0 MISS:          0 MSHR_MERGE:          0
cpu0->cpu0_ITLB PREFETCH REQUESTED:          0 ISSUED:          0 USEFUL:          0 USELESS:          0
cpu0->cpu0_ITLB AVERAGE MISS LATENCY: 150.6 cycles
cpu0->cpu0_DTLB TOTAL        ACCESS:   17186884 HIT:   16241187 MISS:     945697 MSHR_MERGE:     117965
cpu0->cpu0_DTLB LOAD         ACCESS:   17186884 HIT:   16241187 MISS:     945697 MSHR_MERGE:     117965
cpu0->cpu0_DTLB RFO          ACCESS:          0 HIT:          0 MISS:          0 MSHR_MERGE:          0
cpu0->cpu0_DTLB PREFETCH     ACCESS:          0 HIT:          0 MISS:          0 MSHR_MERGE:          0
cpu0->cpu0_DTLB WRITE        ACCESS:          0 HIT:          0 MISS:          0 MSHR_MERGE:          0
cpu0->cpu0_DTLB TRANSLATION  ACCESS:          0 HIT:          0 MISS:          0 MSHR_MERGE:          0
cpu0->cpu0_DTLB PREFETCH REQUESTED:          0 ISSUED:          0 USEFUL:          0 USELESS:          0
cpu0->cpu0_DTLB AVERAGE MISS LATENCY: 41.24 cycles
cpu0->LLC TOTAL        ACCESS:    2001041 HIT:     447755 MISS:    1553286 MSHR_MERGE:          0
cpu0->LLC LOAD         ACCESS:     553176 HIT:     125562 MISS:     427614 MSHR_MERGE:          0
cpu0->LLC RFO          ACCESS:      77840 HIT:      13689 MISS:      64151 MSHR_MERGE:          0
cpu0->LLC PREFETCH     ACCESS:     694382 HIT:     115158 MISS:     579224 MSHR_MERGE:          0
cpu0->LLC WRITE        ACCESS:     399998 HIT:     140788 MISS:     259210 MSHR_MERGE:          0
cpu0->LLC TRANSLATION  ACCESS:     275645 HIT:      52558 MISS:     223087 MSHR_MERGE:          0
cpu0->LLC PREFETCH REQUESTED:          0 ISSUED:          0 USEFUL:          0 USELESS:          0
cpu0->LLC AVERAGE MISS LATENCY: 65.59 cycles

DRAM Statistics

Channel 0 RQ ROW_BUFFER_HIT:      27604
  ROW_BUFFER_MISS:    1266438
  AVG DBUS CONGESTED CYCLE: 9.933
Channel 0 WQ ROW_BUFFER_HIT:      48175
  ROW_BUFFER_MISS:     242792
  FULL:          0
Channel 0 REFRESHES ISSUED:       8738
