[VMEM] WARNING: physical memory size is smaller than virtual memory size.
WARNING: option --warmup_instructions is deprecated. Use --warmup-instructions instead.
WARNING: option --simulation_instructions is deprecated. Use --simulation-instructions instead.

*** ChampSim Multicore Out-of-Order Simulator ***
Warmup Instructions: 20000000
Simulation Instructions: 50000000
Number of CPUs: 1
Page size: 8192

Off-chip DRAM Size: 16 GiB Channels: 1 Width: 64-bit Data Rate: 3205 MT/s
Heartbeat CPU 0 instructions: 10000000 cycles: 4302885 heartbeat IPC: 2.324 cumulative IPC: 2.324 (Simulation time: 00 hr 00 min 42 sec)
Heartbeat CPU 0 instructions: 20000000 cycles: 8598267 heartbeat IPC: 2.328 cumulative IPC: 2.326 (Simulation time: 00 hr 01 min 24 sec)
Warmup finished CPU 0 instructions: 20000000 cycles: 8598267 cumulative IPC: 2.326 (Simulation time: 00 hr 01 min 24 sec)
Warmup complete CPU 0 instructions: 20000000 cycles: 8598267 cumulative IPC: 2.326 (Simulation time: 00 hr 01 min 24 sec)
Heartbeat CPU 0 instructions: 30000003 cycles: 16560356 heartbeat IPC: 1.256 cumulative IPC: 1.256 (Simulation time: 00 hr 02 min 24 sec)
Heartbeat CPU 0 instructions: 40000004 cycles: 24467027 heartbeat IPC: 1.265 cumulative IPC: 1.26 (Simulation time: 00 hr 03 min 25 sec)
Heartbeat CPU 0 instructions: 50000007 cycles: 32382923 heartbeat IPC: 1.263 cumulative IPC: 1.261 (Simulation time: 00 hr 04 min 25 sec)
Heartbeat CPU 0 instructions: 60000010 cycles: 40305218 heartbeat IPC: 1.262 cumulative IPC: 1.262 (Simulation time: 00 hr 05 min 26 sec)
Simulation finished CPU 0 instructions: 50000000 cycles: 39639652 cumulative IPC: 1.261 (Simulation time: 00 hr 06 min 24 sec)
Simulation complete CPU 0 instructions: 50000000 cycles: 39639652 cumulative IPC: 1.261 (Simulation time: 00 hr 06 min 24 sec)

ChampSim completed all CPUs

=== Simulation ===
CPU 0 runs traces/603.bwaves_s-1740B.champsimtrace.xz

Region of Interest Statistics

CPU 0 cumulative IPC: 1.261 instructions: 50000000 cycles: 39639652
CPU 0 Branch Prediction Accuracy: 99.97% MPKI: 0.00734 Average ROB Occupancy at Mispredict: 190
Branch type MPKI
BRANCH_DIRECT_JUMP: 0
BRANCH_INDIRECT: 0
BRANCH_CONDITIONAL: 0.00734
BRANCH_DIRECT_CALL: 0
BRANCH_INDIRECT_CALL: 0
BRANCH_RETURN: 0

cpu0->cpu0_STLB TOTAL        ACCESS:       7425 HIT:        365 MISS:       7060 MSHR_MERGE:          0
cpu0->cpu0_STLB LOAD         ACCESS:       7425 HIT:        365 MISS:       7060 MSHR_MERGE:          0
cpu0->cpu0_STLB RFO          ACCESS:          0 HIT:          0 MISS:          0 MSHR_MERGE:          0
cpu0->cpu0_STLB PREFETCH     ACCESS:          0 HIT:          0 MISS:          0 MSHR_MERGE:          0
cpu0->cpu0_STLB WRITE        ACCESS:          0 HIT:          0 MISS:          0 MSHR_MERGE:          0
cpu0->cpu0_STLB TRANSLATION  ACCESS:          0 HIT:          0 MISS:          0 MSHR_MERGE:          0
cpu0->cpu0_STLB PREFETCH REQUESTED:          0 ISSUED:          0 USEFUL:          0 USELESS:          0
cpu0->cpu0_STLB AVERAGE MISS LATENCY: 590.8 cycles
cpu0->cpu0_L2C TOTAL        ACCESS:    3094853 HIT:    2022752 MISS:    1072101 MSHR_MERGE:     104252
cpu0->cpu0_L2C LOAD         ACCESS:    1020838 HIT:     945376 MISS:      75462 MSHR_MERGE:      43127
cpu0->cpu0_L2C RFO          ACCESS:      33176 HIT:       8814 MISS:      24362 MSHR_MERGE:          0
cpu0->cpu0_L2C PREFETCH     ACCESS:    1990349 HIT:    1028589 MISS:     961760 MSHR_MERGE:      61125
cpu0->cpu0_L2C WRITE        ACCESS:      36940 HIT:      36891 MISS:         49 MSHR_MERGE:          0
cpu0->cpu0_L2C TRANSLATION  ACCESS:      13550 HIT:       3082 MISS:      10468 MSHR_MERGE:          0
cpu0->cpu0_L2C PREFETCH REQUESTED:    2062410 ISSUED:    1990349 USEFUL:     900173 USELESS:        463
cpu0->cpu0_L2C AVERAGE MISS LATENCY: 104.9 cycles
cpu0->cpu0_L1I TOTAL        ACCESS:   12012892 HIT:   12012892 MISS:          0 MSHR_MERGE:          0
cpu0->cpu0_L1I LOAD         ACCESS:   12012892 HIT:   12012892 MISS:          0 MSHR_MERGE:          0
cpu0->cpu0_L1I RFO          ACCESS:          0 HIT:          0 MISS:          0 MSHR_MERGE:          0
cpu0->cpu0_L1I PREFETCH     ACCESS:          0 HIT:          0 MISS:          0 MSHR_MERGE:          0
cpu0->cpu0_L1I WRITE        ACCESS:          0 HIT:          0 MISS:          0 MSHR_MERGE:          0
cpu0->cpu0_L1I TRANSLATION  ACCESS:          0 HIT:          0 MISS:          0 MSHR_MERGE:          0
cpu0->cpu0_L1I PREFETCH REQUESTED:          0 ISSUED:          0 USEFUL:          0 USELESS:          0
cpu0->cpu0_L1I AVERAGE MISS LATENCY: - cycles
cpu0->cpu0_L1D TOTAL        ACCESS:   16990727 HIT:   15873429 MISS:    1117298 MSHR_MERGE:      49562
cpu0->cpu0_L1D LOAD         ACCESS:   14159975 HIT:   13092305 MISS:    1067670 MSHR_MERGE:      46763
cpu0->cpu0_L1D RFO          ACCESS:          0 HIT:          0 MISS:          0 MSHR_MERGE:          0
cpu0->cpu0_L1D PREFETCH     ACCESS:          0 HIT:          0 MISS:          0 MSHR_MERGE:          0
cpu0->cpu0_L1D WRITE        ACCESS:    2816699 HIT:    2780829 MISS:      35870 MSHR_MERGE:       2591
cpu0->cpu0_L1D TRANSLATION  ACCESS:      14053 HIT:        295 MISS:      13758 MSHR_MERGE:        208
cpu0->cpu0_L1D PREFETCH REQUESTED:          0 ISSUED:          0 USEFUL:          0 USELESS:          0
cpu0->cpu0_L1D AVERAGE MISS LATENCY: 23.43 cycles
cpu0->cpu0_ITLB TOTAL        ACCESS:   10879410 HIT:   10879410 MISS:          0 MSHR_MERGE:          0
cpu0->cpu0_ITLB LOAD         ACCESS:   10879410 HIT:   10879410 MISS:          0 MSHR_MERGE:          0
cpu0->cpu0_ITLB RFO          ACCESS:          0 HIT:          0 MISS:          0 MSHR_MERGE:          0
cpu0->cpu0_ITLB PREFETCH     ACCESS:          0 HIT:          0 MISS:          0 MSHR_MERGE:          0
cpu0->cpu0_ITLB WRITE        ACCESS:          0 HIT:          0 MISS:          0 MSHR_MERGE:          0
cpu0->cpu0_ITLB TRANSLATION  ACCESS:          0 HIT:          0 MISS:          0 MSHR_MERGE:          0
cpu0->cpu0_ITLB PREFETCH REQUESTED:          0 ISSUED:          0 USEFUL:          0 USELESS:          0
cpu0->cpu0_ITLB AVERAGE MISS LATENCY: - cycles
cpu0->cpu0_DTLB TOTAL        ACCESS:   16342738 HIT:   16330223 MISS:      12515 MSHR_MERGE:       5090
cpu0->cpu0_DTLB LOAD         ACCESS:   16342738 HIT:   16330223 MISS:      12515 MSHR_MERGE:       5090
cpu0->cpu0_DTLB RFO          ACCESS:          0 HIT:          0 MISS:          0 MSHR_MERGE:          0
cpu0->cpu0_DTLB PREFETCH     ACCESS:          0 HIT:          0 MISS:          0 MSHR_MERGE:          0
cpu0->cpu0_DTLB WRITE        ACCESS:          0 HIT:          0 MISS:          0 MSHR_MERGE:          0
cpu0->cpu0_DTLB TRANSLATION  ACCESS:          0 HIT:          0 MISS:          0 MSHR_MERGE:          0
cpu0->cpu0_DTLB PREFETCH REQUESTED:          0 ISSUED:          0 USEFUL:          0 USELESS:          0
cpu0->cpu0_DTLB AVERAGE MISS LATENCY: 566.7 cycles
cpu0->LLC TOTAL        ACCESS:     992282 HIT:       5108 MISS:     987174 MSHR_MERGE:          0
cpu0->LLC LOAD         ACCESS:      32335 HIT:        323 MISS:      32012 MSHR_MERGE:          0
cpu0->LLC RFO          ACCESS:      24362 HIT:          0 MISS:      24362 MSHR_MERGE:          0
cpu0->LLC PREFETCH     ACCESS:     900635 HIT:       1847 MISS:     898788 MSHR_MERGE:          0
cpu0->LLC WRITE        ACCESS:      24482 HIT:       2934 MISS:      21548 MSHR_MERGE:          0
cpu0->LLC TRANSLATION  ACCESS:      10468 HIT:          4 MISS:      10464 MSHR_MERGE:          0
cpu0->LLC PREFETCH REQUESTED:          0 ISSUED:          0 USEFUL:          0 USELESS:          0
cpu0->LLC AVERAGE MISS LATENCY: 83.52 cycles

DRAM Statistics

Channel 0 RQ ROW_BUFFER_HIT:        810
  ROW_BUFFER_MISS:     964817
  AVG DBUS CONGESTED CYCLE: 3.237
Channel 0 WQ ROW_BUFFER_HIT:       1420
  ROW_BUFFER_MISS:      22885
  FULL:          0
Channel 0 REFRESHES ISSUED:       3303
