[VMEM] WARNING: physical memory size is smaller than virtual memory size.
WARNING: option --warmup_instructions is deprecated. Use --warmup-instructions instead.
WARNING: option --simulation_instructions is deprecated. Use --simulation-instructions instead.

*** ChampSim Multicore Out-of-Order Simulator ***
Warmup Instructions: 20000000
Simulation Instructions: 50000000
Number of CPUs: 1
Page size: 8192

Off-chip DRAM Size: 16 GiB Channels: 1 Width: 64-bit Data Rate: 3205 MT/s
Heartbeat CPU 0 instructions: 10000001 cycles: 4631084 heartbeat IPC: 2.159 cumulative IPC: 2.159 (Simulation time: 00 hr 00 min 45 sec)
Heartbeat CPU 0 instructions: 20000002 cycles: 9208403 heartbeat IPC: 2.185 cumulative IPC: 2.172 (Simulation time: 00 hr 01 min 30 sec)
Warmup finished CPU 0 instructions: 20000002 cycles: 9208403 cumulative IPC: 2.172 (Simulation time: 00 hr 01 min 30 sec)
Warmup complete CPU 0 instructions: 20000002 cycles: 9208403 cumulative IPC: 2.172 (Simulation time: 00 hr 01 min 30 sec)
Heartbeat CPU 0 instructions: 30000005 cycles: 39043513 heartbeat IPC: 0.3352 cumulative IPC: 0.3352 (Simulation time: 00 hr 03 min 29 sec)
Heartbeat CPU 0 instructions: 40000005 cycles: 68563687 heartbeat IPC: 0.3388 cumulative IPC: 0.337 (Simulation time: 00 hr 05 min 26 sec)
Heartbeat CPU 0 instructions: 50000007 cycles: 98672407 heartbeat IPC: 0.3321 cumulative IPC: 0.3353 (Simulation time: 00 hr 07 min 26 sec)
Heartbeat CPU 0 instructions: 60000007 cycles: 128467867 heartbeat IPC: 0.3356 cumulative IPC: 0.3354 (Simulation time: 00 hr 09 min 25 sec)
Simulation finished CPU 0 instructions: 50000002 cycles: 149594803 cumulative IPC: 0.3342 (Simulation time: 00 hr 11 min 25 sec)
Simulation complete CPU 0 instructions: 50000002 cycles: 149594803 cumulative IPC: 0.3342 (Simulation time: 00 hr 11 min 25 sec)

ChampSim completed all CPUs

=== Simulation ===
CPU 0 runs traces/605.mcf_s-1152B.champsimtrace.xz

Region of Interest Statistics

CPU 0 cumulative IPC: 0.3342 instructions: 50000002 cycles: 149594803
CPU 0 Branch Prediction Accuracy: 90.19% MPKI: 24.48 Average ROB Occupancy at Mispredict: 21.45
Branch type MPKI
BRANCH_DIRECT_JUMP: 0.2057
BRANCH_INDIRECT: 0
BRANCH_CONDITIONAL: 24.27
BRANCH_DIRECT_CALL: 0
BRANCH_INDIRECT_CALL: 0.0036
BRANCH_RETURN: 2e-05

cpu0->cpu0_STLB TOTAL        ACCESS:    1006125 HIT:    1000368 MISS:       5757 MSHR_MERGE:          0
cpu0->cpu0_STLB LOAD         ACCESS:    1006125 HIT:    1000368 MISS:       5757 MSHR_MERGE:          0
cpu0->cpu0_STLB RFO          ACCESS:          0 HIT:          0 MISS:          0 MSHR_MERGE:          0
cpu0->cpu0_STLB PREFETCH     ACCESS:          0 HIT:          0 MISS:          0 MSHR_MERGE:          0
cpu0->cpu0_STLB WRITE        ACCESS:          0 HIT:          0 MISS:          0 MSHR_MERGE:          0
cpu0->cpu0_STLB TRANSLATION  ACCESS:          0 HIT:          0 MISS:          0 MSHR_MERGE:          0
cpu0->cpu0_STLB PREFETCH REQUESTED:          0 ISSUED:          0 USEFUL:          0 USELESS:          0
cpu0->cpu0_STLB AVERAGE MISS LATENCY: 631.1 cycles
cpu0->cpu0_L2C TOTAL        ACCESS:    9379430 HIT:    3588140 MISS:    5791290 MSHR_MERGE:     209653
cpu0->cpu0_L2C LOAD         ACCESS:    2552741 HIT:    1093328 MISS:    1459413 MSHR_MERGE:      38267
cpu0->cpu0_L2C RFO          ACCESS:     187381 HIT:      25078 MISS:     162303 MSHR_MERGE:          1
cpu0->cpu0_L2C PREFETCH     ACCESS:    6365197 HIT:    2205588 MISS:    4159609 MSHR_MERGE:     171385
cpu0->cpu0_L2C WRITE        ACCESS:     265763 HIT:     262716 MISS:       3047 MSHR_MERGE:          0
cpu0->cpu0_L2C TRANSLATION  ACCESS:       8348 HIT:       1430 MISS:       6918 MSHR_MERGE:          0
cpu0->cpu0_L2C PREFETCH REQUESTED:    6366156 ISSUED:    6365198 USEFUL:     824622 USELESS:    3163203
cpu0->cpu0_L2C AVERAGE MISS LATENCY: 57.75 cycles
cpu0->cpu0_L1I TOTAL        ACCESS:     415171 HIT:     415171 MISS:          0 MSHR_MERGE:          0
cpu0->cpu0_L1I LOAD         ACCESS:     415171 HIT:     415171 MISS:          0 MSHR_MERGE:          0
cpu0->cpu0_L1I RFO          ACCESS:          0 HIT:          0 MISS:          0 MSHR_MERGE:          0
cpu0->cpu0_L1I PREFETCH     ACCESS:          0 HIT:          0 MISS:          0 MSHR_MERGE:          0
cpu0->cpu0_L1I WRITE        ACCESS:          0 HIT:          0 MISS:          0 MSHR_MERGE:          0
cpu0->cpu0_L1I TRANSLATION  ACCESS:          0 HIT:          0 MISS:          0 MSHR_MERGE:          0
cpu0->cpu0_L1I PREFETCH REQUESTED:          0 ISSUED:          0 USEFUL:          0 USELESS:          0
cpu0->cpu0_L1I AVERAGE MISS LATENCY: - cycles
cpu0->cpu0_L1D TOTAL        ACCESS:   17979121 HIT:   14382974 MISS:    3596147 MSHR_MERGE:     847674
cpu0->cpu0_L1D LOAD         ACCESS:   12803197 HIT:    9720913 MISS:    3082284 MSHR_MERGE:     529543
cpu0->cpu0_L1D RFO          ACCESS:          0 HIT:          0 MISS:          0 MSHR_MERGE:          0
cpu0->cpu0_L1D PREFETCH     ACCESS:          0 HIT:          0 MISS:          0 MSHR_MERGE:          0
cpu0->cpu0_L1D WRITE        ACCESS:    5164314 HIT:    4658799 MISS:     505515 MSHR_MERGE:     318131
cpu0->cpu0_L1D TRANSLATION  ACCESS:      11610 HIT:       3262 MISS:       8348 MSHR_MERGE:          0
cpu0->cpu0_L1D PREFETCH REQUESTED:          0 ISSUED:          0 USEFUL:          0 USELESS:          0
cpu0->cpu0_L1D AVERAGE MISS LATENCY: 43.58 cycles
cpu0->cpu0_ITLB TOTAL        ACCESS:     382507 HIT:     382507 MISS:          0 MSHR_MERGE:          0
cpu0->cpu0_ITLB LOAD         ACCESS:     382507 HIT:     382507 MISS:          0 MSHR_MERGE:          0
cpu0->cpu0_ITLB RFO          ACCESS:          0 HIT:          0 MISS:          0 MSHR_MERGE:          0
cpu0->cpu0_ITLB PREFETCH     ACCESS:          0 HIT:          0 MISS:          0 MSHR_MERGE:          0
cpu0->cpu0_ITLB WRITE        ACCESS:          0 HIT:          0 MISS:          0 MSHR_MERGE:          0
cpu0->cpu0_ITLB TRANSLATION  ACCESS:          0 HIT:          0 MISS:          0 MSHR_MERGE:          0
cpu0->cpu0_ITLB PREFETCH REQUESTED:          0 ISSUED:          0 USEFUL:          0 USELESS:          0
cpu0->cpu0_ITLB AVERAGE MISS LATENCY: - cycles
cpu0->cpu0_DTLB TOTAL        ACCESS:   16839853 HIT:   15646539 MISS:    1193314 MSHR_MERGE:     187189
cpu0->cpu0_DTLB LOAD         ACCESS:   16839853 HIT:   15646539 MISS:    1193314 MSHR_MERGE:     187189
cpu0->cpu0_DTLB RFO          ACCESS:          0 HIT:          0 MISS:          0 MSHR_MERGE:          0
cpu0->cpu0_DTLB PREFETCH     ACCESS:          0 HIT:          0 MISS:          0 MSHR_MERGE:          0
cpu0->cpu0_DTLB WRITE        ACCESS:          0 HIT:          0 MISS:          0 MSHR_MERGE:          0
cpu0->cpu0_DTLB TRANSLATION  ACCESS:          0 HIT:          0 MISS:          0 MSHR_MERGE:          0
cpu0->cpu0_DTLB PREFETCH REQUESTED:          0 ISSUED:          0 USEFUL:          0 USELESS:          0
cpu0->cpu0_DTLB AVERAGE MISS LATENCY: 7.617 cycles
cpu0->LLC TOTAL        ACCESS:    5799366 HIT:    3244674 MISS:    2554692 MSHR_MERGE:          0
cpu0->LLC LOAD         ACCESS:    1421146 HIT:    1022435 MISS:     398711 MSHR_MERGE:          0
cpu0->LLC RFO          ACCESS:     162302 HIT:     149104 MISS:      13198 MSHR_MERGE:          0
cpu0->LLC PREFETCH     ACCESS:    3988222 HIT:    1866954 MISS:    2121268 MSHR_MERGE:          0
cpu0->LLC WRITE        ACCESS:     220778 HIT:     206145 MISS:      14633 MSHR_MERGE:          0
cpu0->LLC TRANSLATION  ACCESS:       6918 HIT:         36 MISS:       6882 MSHR_MERGE:          0
cpu0->LLC PREFETCH REQUESTED:          0 ISSUED:          0 USEFUL:          0 USELESS:          0
cpu0->LLC AVERAGE MISS LATENCY: 151.1 cycles

DRAM Statistics

Channel 0 RQ ROW_BUFFER_HIT:      83284
  ROW_BUFFER_MISS:    2456581
  AVG DBUS CONGESTED CYCLE: 12.35
Channel 0 WQ ROW_BUFFER_HIT:       5266
  ROW_BUFFER_MISS:      17060
  FULL:          0
Channel 0 REFRESHES ISSUED:      12466
