[VMEM] WARNING: physical memory size is smaller than virtual memory size.
WARNING: option --warmup_instructions is deprecated. Use --warmup-instructions instead.
WARNING: option --simulation_instructions is deprecated. Use --simulation-instructions instead.

*** ChampSim Multicore Out-of-Order Simulator ***
Warmup Instructions: 20000000
Simulation Instructions: 50000000
Number of CPUs: 1
Page size: 8192

Off-chip DRAM Size: 16 GiB Channels: 1 Width: 64-bit Data Rate: 3205 MT/s
Heartbeat CPU 0 instructions: 10000000 cycles: 4302471 heartbeat IPC: 2.324 cumulative IPC: 2.324 (Simulation time: 00 hr 00 min 41 sec)
Heartbeat CPU 0 instructions: 20000000 cycles: 8596367 heartbeat IPC: 2.329 cumulative IPC: 2.327 (Simulation time: 00 hr 01 min 22 sec)
Warmup finished CPU 0 instructions: 20000000 cycles: 8596367 cumulative IPC: 2.327 (Simulation time: 00 hr 01 min 22 sec)
Warmup complete CPU 0 instructions: 20000000 cycles: 8596367 cumulative IPC: 2.327 (Simulation time: 00 hr 01 min 22 sec)
Heartbeat CPU 0 instructions: 30000003 cycles: 17120133 heartbeat IPC: 1.173 cumulative IPC: 1.173 (Simulation time: 00 hr 02 min 24 sec)
Heartbeat CPU 0 instructions: 40000003 cycles: 25582227 heartbeat IPC: 1.182 cumulative IPC: 1.177 (Simulation time: 00 hr 03 min 26 sec)
Heartbeat CPU 0 instructions: 50000003 cycles: 34077551 heartbeat IPC: 1.177 cumulative IPC: 1.177 (Simulation time: 00 hr 04 min 28 sec)
Heartbeat CPU 0 instructions: 60000005 cycles: 42591255 heartbeat IPC: 1.175 cumulative IPC: 1.177 (Simulation time: 00 hr 05 min 30 sec)
Simulation finished CPU 0 instructions: 50000000 cycles: 42480363 cumulative IPC: 1.177 (Simulation time: 00 hr 06 min 32 sec)
Simulation complete CPU 0 instructions: 50000000 cycles: 42480363 cumulative IPC: 1.177 (Simulation time: 00 hr 06 min 32 sec)

ChampSim completed all CPUs

=== Simulation ===
CPU 0 runs traces/603.bwaves_s-1740B.champsimtrace.xz

Region of Interest Statistics

CPU 0 cumulative IPC: 1.177 instructions: 50000000 cycles: 42480363
CPU 0 Branch Prediction Accuracy: 99.97% MPKI: 0.00734 Average ROB Occupancy at Mispredict: 190.1
Branch type MPKI
BRANCH_DIRECT_JUMP: 0
BRANCH_INDIRECT: 0
BRANCH_CONDITIONAL: 0.00734
BRANCH_DIRECT_CALL: 0
BRANCH_INDIRECT_CALL: 0
BRANCH_RETURN: 0

cpu0->cpu0_STLB TOTAL        ACCESS:       7425 HIT:        365 MISS:       7060 MSHR_MERGE:          0
cpu0->cpu0_STLB LOAD         ACCESS:       7425 HIT:        365 MISS:       7060 MSHR_MERGE:          0
cpu0->cpu0_STLB RFO          ACCESS:          0 HIT:          0 MISS:          0 MSHR_MERGE:          0
cpu0->cpu0_STLB PREFETCH     ACCESS:          0 HIT:          0 MISS:          0 MSHR_MERGE:          0
cpu0->cpu0_STLB WRITE        ACCESS:          0 HIT:          0 MISS:          0 MSHR_MERGE:          0
cpu0->cpu0_STLB TRANSLATION  ACCESS:          0 HIT:          0 MISS:          0 MSHR_MERGE:          0
cpu0->cpu0_STLB PREFETCH REQUESTED:          0 ISSUED:          0 USEFUL:          0 USELESS:          0
cpu0->cpu0_STLB AVERAGE MISS LATENCY: 690.3 cycles
cpu0->cpu0_L2C TOTAL        ACCESS:    3002777 HIT:    1938910 MISS:    1063867 MSHR_MERGE:      95655
cpu0->cpu0_L2C LOAD         ACCESS:    1020852 HIT:     931156 MISS:      89696 MSHR_MERGE:      52782
cpu0->cpu0_L2C RFO          ACCESS:      32771 HIT:       8409 MISS:      24362 MSHR_MERGE:          0
cpu0->cpu0_L2C PREFETCH     ACCESS:    1898962 HIT:     959635 MISS:     939327 MSHR_MERGE:      42873
cpu0->cpu0_L2C WRITE        ACCESS:      36662 HIT:      36610 MISS:         52 MSHR_MERGE:          0
cpu0->cpu0_L2C TRANSLATION  ACCESS:      13530 HIT:       3100 MISS:      10430 MSHR_MERGE:          0
cpu0->cpu0_L2C PREFETCH REQUESTED:    1951358 ISSUED:    1898961 USEFUL:     895950 USELESS:        455
cpu0->cpu0_L2C AVERAGE MISS LATENCY: 158.5 cycles
cpu0->cpu0_L1I TOTAL        ACCESS:   10928854 HIT:   10928854 MISS:          0 MSHR_MERGE:          0
cpu0->cpu0_L1I LOAD         ACCESS:   10928854 HIT:   10928854 MISS:          0 MSHR_MERGE:          0
cpu0->cpu0_L1I RFO          ACCESS:          0 HIT:          0 MISS:          0 MSHR_MERGE:          0
cpu0->cpu0_L1I PREFETCH     ACCESS:          0 HIT:          0 MISS:          0 MSHR_MERGE:          0
cpu0->cpu0_L1I WRITE        ACCESS:          0 HIT:          0 MISS:          0 MSHR_MERGE:          0
cpu0->cpu0_L1I TRANSLATION  ACCESS:          0 HIT:          0 MISS:          0 MSHR_MERGE:          0
cpu0->cpu0_L1I PREFETCH REQUESTED:          0 ISSUED:          0 USEFUL:          0 USELESS:          0
cpu0->cpu0_L1I AVERAGE MISS LATENCY: - cycles
cpu0->cpu0_L1D TOTAL        ACCESS:   16923525 HIT:   15772617 MISS:    1150908 MSHR_MERGE:      83582
cpu0->cpu0_L1D LOAD         ACCESS:   14092763 HIT:   13014550 MISS:    1078213 MSHR_MERGE:      57318
cpu0->cpu0_L1D RFO          ACCESS:          0 HIT:          0 MISS:          0 MSHR_MERGE:          0
cpu0->cpu0_L1D PREFETCH     ACCESS:          0 HIT:          0 MISS:          0 MSHR_MERGE:          0
cpu0->cpu0_L1D WRITE        ACCESS:    2816699 HIT:    2757774 MISS:      58925 MSHR_MERGE:      26024
cpu0->cpu0_L1D TRANSLATION  ACCESS:      14063 HIT:        293 MISS:      13770 MSHR_MERGE:        240
cpu0->cpu0_L1D PREFETCH REQUESTED:          0 ISSUED:          0 USEFUL:          0 USELESS:          0
cpu0->cpu0_L1D AVERAGE MISS LATENCY: 37.37 cycles
cpu0->cpu0_ITLB TOTAL        ACCESS:    9692978 HIT:    9692978 MISS:          0 MSHR_MERGE:          0
cpu0->cpu0_ITLB LOAD         ACCESS:    9692978 HIT:    9692978 MISS:          0 MSHR_MERGE:          0
cpu0->cpu0_ITLB RFO          ACCESS:          0 HIT:          0 MISS:          0 MSHR_MERGE:          0
cpu0->cpu0_ITLB PREFETCH     ACCESS:          0 HIT:          0 MISS:          0 MSHR_MERGE:          0
cpu0->cpu0_ITLB WRITE        ACCESS:          0 HIT:          0 MISS:          0 MSHR_MERGE:          0
cpu0->cpu0_ITLB TRANSLATION  ACCESS:          0 HIT:          0 MISS:          0 MSHR_MERGE:          0
cpu0->cpu0_ITLB PREFETCH REQUESTED:          0 ISSUED:          0 USEFUL:          0 USELESS:          0
cpu0->cpu0_ITLB AVERAGE MISS LATENCY: - cycles
cpu0->cpu0_DTLB TOTAL        ACCESS:   16269930 HIT:   16257123 MISS:      12807 MSHR_MERGE:       5382
cpu0->cpu0_DTLB LOAD         ACCESS:   16269930 HIT:   16257123 MISS:      12807 MSHR_MERGE:       5382
cpu0->cpu0_DTLB RFO          ACCESS:          0 HIT:          0 MISS:          0 MSHR_MERGE:          0
cpu0->cpu0_DTLB PREFETCH     ACCESS:          0 HIT:          0 MISS:          0 MSHR_MERGE:          0
cpu0->cpu0_DTLB WRITE        ACCESS:          0 HIT:          0 MISS:          0 MSHR_MERGE:          0
cpu0->cpu0_DTLB TRANSLATION  ACCESS:          0 HIT:          0 MISS:          0 MSHR_MERGE:          0
cpu0->cpu0_DTLB PREFETCH REQUESTED:          0 ISSUED:          0 USEFUL:          0 USELESS:          0
cpu0->cpu0_DTLB AVERAGE MISS LATENCY: 661.4 cycles
cpu0->LLC TOTAL        ACCESS:     992677 HIT:       4671 MISS:     988006 MSHR_MERGE:          0
cpu0->LLC LOAD         ACCESS:      36914 HIT:        425 MISS:      36489 MSHR_MERGE:          0
cpu0->LLC RFO          ACCESS:      24362 HIT:          0 MISS:      24362 MSHR_MERGE:          0
cpu0->LLC PREFETCH     ACCESS:     896454 HIT:       1717 MISS:     894737 MSHR_MERGE:          0
cpu0->LLC WRITE        ACCESS:      24517 HIT:       2522 MISS:      21995 MSHR_MERGE:          0
cpu0->LLC TRANSLATION  ACCESS:      10430 HIT:          7 MISS:      10423 MSHR_MERGE:          0
cpu0->LLC PREFETCH REQUESTED:          0 ISSUED:          0 USEFUL:          0 USELESS:          0
cpu0->LLC AVERAGE MISS LATENCY: 135.8 cycles

DRAM Statistics

Channel 0 RQ ROW_BUFFER_HIT:        838
  ROW_BUFFER_MISS:     965173
  AVG DBUS CONGESTED CYCLE: 4.144
Channel 0 WQ ROW_BUFFER_HIT:       2423
  ROW_BUFFER_MISS:      21927
  FULL:          0
Channel 0 REFRESHES ISSUED:       3540
