[VMEM] WARNING: physical memory size is smaller than virtual memory size.
WARNING: option --warmup_instructions is deprecated. Use --warmup-instructions instead.
WARNING: option --simulation_instructions is deprecated. Use --simulation-instructions instead.

*** ChampSim Multicore Out-of-Order Simulator ***
Warmup Instructions: 20000000
Simulation Instructions: 50000000
Number of CPUs: 1
Page size: 8192

Off-chip DRAM Size: 16 GiB Channels: 1 Width: 64-bit Data Rate: 3205 MT/s
Heartbeat CPU 0 instructions: 10000002 cycles: 7857520 heartbeat IPC: 1.273 cumulative IPC: 1.273 (Simulation time: 00 hr 01 min 12 sec)
Warmup finished CPU 0 instructions: 20000000 cycles: 14622299 cumulative IPC: 1.368 (Simulation time: 00 hr 02 min 18 sec)
Warmup complete CPU 0 instructions: 20000000 cycles: 14622299 cumulative IPC: 1.368 (Simulation time: 00 hr 02 min 18 sec)
Heartbeat CPU 0 instructions: 20000004 cycles: 14622300 heartbeat IPC: 1.478 cumulative IPC: 4 (Simulation time: 00 hr 02 min 18 sec)
Heartbeat CPU 0 instructions: 30000006 cycles: 42845385 heartbeat IPC: 0.3543 cumulative IPC: 0.3543 (Simulation time: 00 hr 04 min 40 sec)
Heartbeat CPU 0 instructions: 40000008 cycles: 71231119 heartbeat IPC: 0.3523 cumulative IPC: 0.3533 (Simulation time: 00 hr 07 min 07 sec)
Heartbeat CPU 0 instructions: 50000008 cycles: 99617959 heartbeat IPC: 0.3523 cumulative IPC: 0.353 (Simulation time: 00 hr 09 min 36 sec)
Heartbeat CPU 0 instructions: 60000011 cycles: 126472367 heartbeat IPC: 0.3724 cumulative IPC: 0.3576 (Simulation time: 00 hr 11 min 59 sec)
Simulation finished CPU 0 instructions: 50000000 cycles: 137981632 cumulative IPC: 0.3624 (Simulation time: 00 hr 14 min 16 sec)
Simulation complete CPU 0 instructions: 50000000 cycles: 137981632 cumulative IPC: 0.3624 (Simulation time: 00 hr 14 min 16 sec)

ChampSim completed all CPUs

=== Simulation ===
CPU 0 runs traces/620.omnetpp_s-874B.champsimtrace.xz

Region of Interest Statistics

CPU 0 cumulative IPC: 0.3624 instructions: 50000000 cycles: 137981632
CPU 0 Branch Prediction Accuracy: 96.16% MPKI: 7.99 Average ROB Occupancy at Mispredict: 64
Branch type MPKI
BRANCH_DIRECT_JUMP: 0.9384
BRANCH_INDIRECT: 0.1208
BRANCH_CONDITIONAL: 5.805
BRANCH_DIRECT_CALL: 0.00236
BRANCH_INDIRECT_CALL: 0.7298
BRANCH_RETURN: 0.3936

cpu0->cpu0_STLB TOTAL        ACCESS:     827983 HIT:     690886 MISS:     137097 MSHR_MERGE:          0
cpu0->cpu0_STLB LOAD         ACCESS:     827983 HIT:     690886 MISS:     137097 MSHR_MERGE:          0
cpu0->cpu0_STLB RFO          ACCESS:          0 HIT:          0 MISS:          0 MSHR_MERGE:          0
cpu0->cpu0_STLB PREFETCH     ACCESS:          0 HIT:          0 MISS:          0 MSHR_MERGE:          0
cpu0->cpu0_STLB WRITE        ACCESS:          0 HIT:          0 MISS:          0 MSHR_MERGE:          0
cpu0->cpu0_STLB TRANSLATION  ACCESS:          0 HIT:          0 MISS:          0 MSHR_MERGE:          0
cpu0->cpu0_STLB PREFETCH REQUESTED:          0 ISSUED:          0 USEFUL:          0 USELESS:          0
cpu0->cpu0_STLB AVERAGE MISS LATENCY: 334.9 cycles
cpu0->cpu0_L2C TOTAL        ACCESS:    2802625 HIT:    1245473 MISS:    1557152 MSHR_MERGE:     111881
cpu0->cpu0_L2C LOAD         ACCESS:     933803 HIT:     360522 MISS:     573281 MSHR_MERGE:      23248
cpu0->cpu0_L2C RFO          ACCESS:     139322 HIT:      60995 MISS:      78327 MSHR_MERGE:       2401
cpu0->cpu0_L2C PREFETCH     ACCESS:     927204 HIT:     299218 MISS:     627986 MSHR_MERGE:      86232
cpu0->cpu0_L2C WRITE        ACCESS:     508930 HIT:     506129 MISS:       2801 MSHR_MERGE:          0
cpu0->cpu0_L2C TRANSLATION  ACCESS:     293366 HIT:      18609 MISS:     274757 MSHR_MERGE:          0
cpu0->cpu0_L2C PREFETCH REQUESTED:     927204 ISSUED:     927204 USEFUL:     169375 USELESS:     372356
cpu0->cpu0_L2C AVERAGE MISS LATENCY: 138.4 cycles
cpu0->cpu0_L1I TOTAL        ACCESS:    7884877 HIT:    7859605 MISS:      25272 MSHR_MERGE:       6809
cpu0->cpu0_L1I LOAD         ACCESS:    7884877 HIT:    7859605 MISS:      25272 MSHR_MERGE:       6809
cpu0->cpu0_L1I RFO          ACCESS:          0 HIT:          0 MISS:          0 MSHR_MERGE:          0
cpu0->cpu0_L1I PREFETCH     ACCESS:          0 HIT:          0 MISS:          0 MSHR_MERGE:          0
cpu0->cpu0_L1I WRITE        ACCESS:          0 HIT:          0 MISS:          0 MSHR_MERGE:          0
cpu0->cpu0_L1I TRANSLATION  ACCESS:          0 HIT:          0 MISS:          0 MSHR_MERGE:          0
cpu0->cpu0_L1I PREFETCH REQUESTED:          0 ISSUED:          0 USEFUL:          0 USELESS:          0
cpu0->cpu0_L1I AVERAGE MISS LATENCY: 24.11 cycles
cpu0->cpu0_L1D TOTAL        ACCESS:   18702532 HIT:   16949929 MISS:    1752603 MSHR_MERGE:     404558
cpu0->cpu0_L1D LOAD         ACCESS:    9360413 HIT:    8249690 MISS:    1110723 MSHR_MERGE:     195378
cpu0->cpu0_L1D RFO          ACCESS:          0 HIT:          0 MISS:          0 MSHR_MERGE:          0
cpu0->cpu0_L1D PREFETCH     ACCESS:          0 HIT:          0 MISS:          0 MSHR_MERGE:          0
cpu0->cpu0_L1D WRITE        ACCESS:    9040853 HIT:    8692653 MISS:     348200 MSHR_MERGE:     208866
cpu0->cpu0_L1D TRANSLATION  ACCESS:     301266 HIT:       7586 MISS:     293680 MSHR_MERGE:        314
cpu0->cpu0_L1D PREFETCH REQUESTED:          0 ISSUED:          0 USEFUL:          0 USELESS:          0
cpu0->cpu0_L1D AVERAGE MISS LATENCY: 103.9 cycles
cpu0->cpu0_ITLB TOTAL        ACCESS:    7242445 HIT:    7242241 MISS:        204 MSHR_MERGE:        100
cpu0->cpu0_ITLB LOAD         ACCESS:    7242445 HIT:    7242241 MISS:        204 MSHR_MERGE:        100
cpu0->cpu0_ITLB RFO          ACCESS:          0 HIT:          0 MISS:          0 MSHR_MERGE:          0
cpu0->cpu0_ITLB PREFETCH     ACCESS:          0 HIT:          0 MISS:          0 MSHR_MERGE:          0
cpu0->cpu0_ITLB WRITE        ACCESS:          0 HIT:          0 MISS:          0 MSHR_MERGE:          0
cpu0->cpu0_ITLB TRANSLATION  ACCESS:          0 HIT:          0 MISS:          0 MSHR_MERGE:          0
cpu0->cpu0_ITLB PREFETCH REQUESTED:          0 ISSUED:          0 USEFUL:          0 USELESS:          0
cpu0->cpu0_ITLB AVERAGE MISS LATENCY: 193.8 cycles
cpu0->cpu0_DTLB TOTAL        ACCESS:   17132815 HIT:   16186284 MISS:     946531 MSHR_MERGE:     118652
cpu0->cpu0_DTLB LOAD         ACCESS:   17132815 HIT:   16186284 MISS:     946531 MSHR_MERGE:     118652
cpu0->cpu0_DTLB RFO          ACCESS:          0 HIT:          0 MISS:          0 MSHR_MERGE:          0
cpu0->cpu0_DTLB PREFETCH     ACCESS:          0 HIT:          0 MISS:          0 MSHR_MERGE:          0
cpu0->cpu0_DTLB WRITE        ACCESS:          0 HIT:          0 MISS:          0 MSHR_MERGE:          0
cpu0->cpu0_DTLB TRANSLATION  ACCESS:          0 HIT:          0 MISS:          0 MSHR_MERGE:          0
cpu0->cpu0_DTLB PREFETCH REQUESTED:          0 ISSUED:          0 USEFUL:          0 USELESS:          0
cpu0->cpu0_DTLB AVERAGE MISS LATENCY: 59.6 cycles
cpu0->LLC TOTAL        ACCESS:    1838819 HIT:     440756 MISS:    1398063 MSHR_MERGE:          0
cpu0->LLC LOAD         ACCESS:     550033 HIT:     124539 MISS:     425494 MSHR_MERGE:          0
cpu0->LLC RFO          ACCESS:      75926 HIT:      12961 MISS:      62965 MSHR_MERGE:          0
cpu0->LLC PREFETCH     ACCESS:     541754 HIT:     108947 MISS:     432807 MSHR_MERGE:          0
cpu0->LLC WRITE        ACCESS:     396349 HIT:     140274 MISS:     256075 MSHR_MERGE:          0
cpu0->LLC TRANSLATION  ACCESS:     274757 HIT:      54035 MISS:     220722 MSHR_MERGE:          0
cpu0->LLC PREFETCH REQUESTED:          0 ISSUED:          0 USEFUL:          0 USELESS:          0
cpu0->LLC AVERAGE MISS LATENCY: 116.3 cycles

DRAM Statistics

Channel 0 RQ ROW_BUFFER_HIT:      21287
  ROW_BUFFER_MISS:    1120631
  AVG DBUS CONGESTED CYCLE: 21.3
Channel 0 WQ ROW_BUFFER_HIT:      79925
  ROW_BUFFER_MISS:     208284
  FULL:          0
Channel 0 REFRESHES ISSUED:      11498
