[VMEM] WARNING: physical memory size is smaller than virtual memory size.

*** ChampSim Multicore Out-of-Order Simulator ***
Warmup Instructions: 100000000
Simulation Instructions: 500000000
Number of CPUs: 1
Page size: 4096

Off-chip DRAM Size: 16 GiB Channels: 1 Width: 64-bit Data Rate: 3205 MT/s
Heartbeat CPU 0 instructions: 10000000 cycles: 2973809 heartbeat IPC: 3.363 cumulative IPC: 3.363 (Simulation time: 00 hr 01 min 40 sec)
Heartbeat CPU 0 instructions: 20000000 cycles: 5933658 heartbeat IPC: 3.379 cumulative IPC: 3.371 (Simulation time: 00 hr 02 min 56 sec)
Heartbeat CPU 0 instructions: 30000002 cycles: 8893929 heartbeat IPC: 3.378 cumulative IPC: 3.373 (Simulation time: 00 hr 04 min 12 sec)
Heartbeat CPU 0 instructions: 40000004 cycles: 11853025 heartbeat IPC: 3.379 cumulative IPC: 3.375 (Simulation time: 00 hr 05 min 29 sec)
Heartbeat CPU 0 instructions: 50000004 cycles: 14813404 heartbeat IPC: 3.378 cumulative IPC: 3.375 (Simulation time: 00 hr 06 min 47 sec)
Heartbeat CPU 0 instructions: 60000007 cycles: 17772691 heartbeat IPC: 3.379 cumulative IPC: 3.376 (Simulation time: 00 hr 08 min 04 sec)
Heartbeat CPU 0 instructions: 70000007 cycles: 20732018 heartbeat IPC: 3.379 cumulative IPC: 3.376 (Simulation time: 00 hr 09 min 21 sec)
Heartbeat CPU 0 instructions: 80000010 cycles: 23692680 heartbeat IPC: 3.378 cumulative IPC: 3.377 (Simulation time: 00 hr 10 min 39 sec)
Heartbeat CPU 0 instructions: 90000012 cycles: 26652154 heartbeat IPC: 3.379 cumulative IPC: 3.377 (Simulation time: 00 hr 11 min 57 sec)
Warmup finished CPU 0 instructions: 100000000 cycles: 29611467 cumulative IPC: 3.377 (Simulation time: 00 hr 13 min 14 sec)
Warmup complete CPU 0 instructions: 100000000 cycles: 29611467 cumulative IPC: 3.377 (Simulation time: 00 hr 13 min 14 sec)
Heartbeat CPU 0 instructions: 100000015 cycles: 29611470 heartbeat IPC: 3.379 cumulative IPC: 5 (Simulation time: 00 hr 13 min 14 sec)
Heartbeat CPU 0 instructions: 110000016 cycles: 55230311 heartbeat IPC: 0.3903 cumulative IPC: 0.3903 (Simulation time: 00 hr 20 min 13 sec)
Heartbeat CPU 0 instructions: 120000020 cycles: 80866418 heartbeat IPC: 0.3901 cumulative IPC: 0.3902 (Simulation time: 00 hr 27 min 13 sec)
Heartbeat CPU 0 instructions: 130000020 cycles: 106469298 heartbeat IPC: 0.3906 cumulative IPC: 0.3903 (Simulation time: 00 hr 34 min 13 sec)
Heartbeat CPU 0 instructions: 140000024 cycles: 132099485 heartbeat IPC: 0.3902 cumulative IPC: 0.3903 (Simulation time: 00 hr 41 min 14 sec)
Heartbeat CPU 0 instructions: 150000024 cycles: 157746552 heartbeat IPC: 0.3899 cumulative IPC: 0.3902 (Simulation time: 00 hr 48 min 12 sec)
Heartbeat CPU 0 instructions: 160000028 cycles: 183440345 heartbeat IPC: 0.3892 cumulative IPC: 0.39 (Simulation time: 00 hr 55 min 16 sec)
Heartbeat CPU 0 instructions: 170000028 cycles: 209055069 heartbeat IPC: 0.3904 cumulative IPC: 0.3901 (Simulation time: 01 hr 02 min 15 sec)
Heartbeat CPU 0 instructions: 180000031 cycles: 234733658 heartbeat IPC: 0.3894 cumulative IPC: 0.39 (Simulation time: 01 hr 09 min 15 sec)
Heartbeat CPU 0 instructions: 190000034 cycles: 260300636 heartbeat IPC: 0.3911 cumulative IPC: 0.3901 (Simulation time: 01 hr 16 min 18 sec)
Heartbeat CPU 0 instructions: 200000035 cycles: 285926540 heartbeat IPC: 0.3902 cumulative IPC: 0.3901 (Simulation time: 01 hr 23 min 20 sec)
Heartbeat CPU 0 instructions: 210000038 cycles: 311532168 heartbeat IPC: 0.3905 cumulative IPC: 0.3902 (Simulation time: 01 hr 30 min 27 sec)
Heartbeat CPU 0 instructions: 220000038 cycles: 337129855 heartbeat IPC: 0.3907 cumulative IPC: 0.3902 (Simulation time: 01 hr 37 min 35 sec)
Heartbeat CPU 0 instructions: 230000038 cycles: 362856942 heartbeat IPC: 0.3887 cumulative IPC: 0.3901 (Simulation time: 01 hr 44 min 47 sec)
Heartbeat CPU 0 instructions: 240000042 cycles: 388441554 heartbeat IPC: 0.3909 cumulative IPC: 0.3902 (Simulation time: 01 hr 51 min 55 sec)
Heartbeat CPU 0 instructions: 250000042 cycles: 414065974 heartbeat IPC: 0.3903 cumulative IPC: 0.3902 (Simulation time: 01 hr 59 min 06 sec)
Heartbeat CPU 0 instructions: 260000046 cycles: 439669264 heartbeat IPC: 0.3906 cumulative IPC: 0.3902 (Simulation time: 02 hr 06 min 16 sec)
Heartbeat CPU 0 instructions: 270000046 cycles: 462636605 heartbeat IPC: 0.4354 cumulative IPC: 0.3926 (Simulation time: 02 hr 12 min 45 sec)
Heartbeat CPU 0 instructions: 280000047 cycles: 483902659 heartbeat IPC: 0.4702 cumulative IPC: 0.3962 (Simulation time: 02 hr 18 min 44 sec)
Heartbeat CPU 0 instructions: 290000048 cycles: 509624652 heartbeat IPC: 0.3888 cumulative IPC: 0.3958 (Simulation time: 02 hr 25 min 58 sec)
Heartbeat CPU 0 instructions: 300000052 cycles: 535356027 heartbeat IPC: 0.3886 cumulative IPC: 0.3955 (Simulation time: 02 hr 33 min 14 sec)
Heartbeat CPU 0 instructions: 310000052 cycles: 561005494 heartbeat IPC: 0.3899 cumulative IPC: 0.3952 (Simulation time: 02 hr 40 min 30 sec)
Heartbeat CPU 0 instructions: 320000056 cycles: 586725947 heartbeat IPC: 0.3888 cumulative IPC: 0.3949 (Simulation time: 02 hr 47 min 48 sec)
Heartbeat CPU 0 instructions: 330000056 cycles: 612497926 heartbeat IPC: 0.388 cumulative IPC: 0.3946 (Simulation time: 02 hr 55 min 11 sec)
Heartbeat CPU 0 instructions: 340000060 cycles: 638290414 heartbeat IPC: 0.3877 cumulative IPC: 0.3943 (Simulation time: 03 hr 02 min 37 sec)
Heartbeat CPU 0 instructions: 350000064 cycles: 664016879 heartbeat IPC: 0.3887 cumulative IPC: 0.3941 (Simulation time: 03 hr 09 min 58 sec)
Heartbeat CPU 0 instructions: 360000067 cycles: 689686760 heartbeat IPC: 0.3896 cumulative IPC: 0.3939 (Simulation time: 03 hr 17 min 17 sec)
Heartbeat CPU 0 instructions: 370000068 cycles: 715295954 heartbeat IPC: 0.3905 cumulative IPC: 0.3938 (Simulation time: 03 hr 24 min 35 sec)
Heartbeat CPU 0 instructions: 380000070 cycles: 740940713 heartbeat IPC: 0.3899 cumulative IPC: 0.3936 (Simulation time: 03 hr 31 min 55 sec)
Heartbeat CPU 0 instructions: 390000072 cycles: 766610788 heartbeat IPC: 0.3896 cumulative IPC: 0.3935 (Simulation time: 03 hr 39 min 16 sec)
Heartbeat CPU 0 instructions: 400000075 cycles: 792281500 heartbeat IPC: 0.3895 cumulative IPC: 0.3934 (Simulation time: 03 hr 46 min 44 sec)
Heartbeat CPU 0 instructions: 410000076 cycles: 817963675 heartbeat IPC: 0.3894 cumulative IPC: 0.3932 (Simulation time: 03 hr 54 min 29 sec)
Heartbeat CPU 0 instructions: 420000079 cycles: 843550192 heartbeat IPC: 0.3908 cumulative IPC: 0.3932 (Simulation time: 04 hr 01 min 44 sec)
Heartbeat CPU 0 instructions: 430000079 cycles: 869230720 heartbeat IPC: 0.3894 cumulative IPC: 0.393 (Simulation time: 04 hr 09 min 03 sec)
Heartbeat CPU 0 instructions: 440000083 cycles: 894923609 heartbeat IPC: 0.3892 cumulative IPC: 0.3929 (Simulation time: 04 hr 16 min 21 sec)
Heartbeat CPU 0 instructions: 450000083 cycles: 920670435 heartbeat IPC: 0.3884 cumulative IPC: 0.3928 (Simulation time: 04 hr 23 min 43 sec)
Heartbeat CPU 0 instructions: 460000085 cycles: 946404074 heartbeat IPC: 0.3886 cumulative IPC: 0.3927 (Simulation time: 04 hr 31 min 44 sec)
Heartbeat CPU 0 instructions: 470000086 cycles: 972145660 heartbeat IPC: 0.3885 cumulative IPC: 0.3926 (Simulation time: 04 hr 40 min 38 sec)
Heartbeat CPU 0 instructions: 480000089 cycles: 997816533 heartbeat IPC: 0.3895 cumulative IPC: 0.3925 (Simulation time: 04 hr 48 min 45 sec)
Heartbeat CPU 0 instructions: 490000090 cycles: 1023436300 heartbeat IPC: 0.3903 cumulative IPC: 0.3924 (Simulation time: 04 hr 56 min 28 sec)
Heartbeat CPU 0 instructions: 500000094 cycles: 1049096475 heartbeat IPC: 0.3897 cumulative IPC: 0.3924 (Simulation time: 05 hr 03 min 45 sec)
Heartbeat CPU 0 instructions: 510000098 cycles: 1074813389 heartbeat IPC: 0.3888 cumulative IPC: 0.3923 (Simulation time: 05 hr 11 min 03 sec)
Heartbeat CPU 0 instructions: 520000102 cycles: 1100412674 heartbeat IPC: 0.3906 cumulative IPC: 0.3922 (Simulation time: 05 hr 18 min 18 sec)
Heartbeat CPU 0 instructions: 530000102 cycles: 1126113577 heartbeat IPC: 0.3891 cumulative IPC: 0.3922 (Simulation time: 05 hr 25 min 36 sec)
Heartbeat CPU 0 instructions: 540000106 cycles: 1151773901 heartbeat IPC: 0.3897 cumulative IPC: 0.3921 (Simulation time: 05 hr 33 min 25 sec)
Heartbeat CPU 0 instructions: 550000106 cycles: 1177391827 heartbeat IPC: 0.3904 cumulative IPC: 0.3921 (Simulation time: 05 hr 41 min 06 sec)
Heartbeat CPU 0 instructions: 560000108 cycles: 1203071583 heartbeat IPC: 0.3894 cumulative IPC: 0.392 (Simulation time: 05 hr 48 min 47 sec)
Heartbeat CPU 0 instructions: 570000109 cycles: 1228832430 heartbeat IPC: 0.3882 cumulative IPC: 0.3919 (Simulation time: 05 hr 56 min 05 sec)
Heartbeat CPU 0 instructions: 580000112 cycles: 1254537446 heartbeat IPC: 0.389 cumulative IPC: 0.3919 (Simulation time: 06 hr 03 min 03 sec)
Heartbeat CPU 0 instructions: 590000113 cycles: 1280287670 heartbeat IPC: 0.3883 cumulative IPC: 0.3918 (Simulation time: 06 hr 10 min 00 sec)
Simulation finished CPU 0 instructions: 500000003 cycles: 1276354803 cumulative IPC: 0.3917 (Simulation time: 06 hr 18 min 51 sec)
Simulation complete CPU 0 instructions: 500000003 cycles: 1276354803 cumulative IPC: 0.3917 (Simulation time: 06 hr 18 min 51 sec)

ChampSim completed all CPUs

=== Simulation ===
CPU 0 runs traces/T4.xz

Region of Interest Statistics

CPU 0 cumulative IPC: 0.3917 instructions: 500000003 cycles: 1276354803
CPU 0 Branch Prediction Accuracy: 99.63% MPKI: 0.06786 Average ROB Occupancy at Mispredict: 76.51
Branch type MPKI
BRANCH_DIRECT_JUMP: 0.000178
BRANCH_INDIRECT: 0
BRANCH_CONDITIONAL: 0.05161
BRANCH_DIRECT_CALL: 3.2e-05
BRANCH_INDIRECT_CALL: 0
BRANCH_RETURN: 0.01604

cpu0->cpu0_STLB TOTAL        ACCESS:     116434 HIT:      48248 MISS:      68186 MSHR_MERGE:          0
cpu0->cpu0_STLB LOAD         ACCESS:     116434 HIT:      48248 MISS:      68186 MSHR_MERGE:          0
cpu0->cpu0_STLB RFO          ACCESS:          0 HIT:          0 MISS:          0 MSHR_MERGE:          0
cpu0->cpu0_STLB PREFETCH     ACCESS:          0 HIT:          0 MISS:          0 MSHR_MERGE:          0
cpu0->cpu0_STLB WRITE        ACCESS:          0 HIT:          0 MISS:          0 MSHR_MERGE:          0
cpu0->cpu0_STLB TRANSLATION  ACCESS:          0 HIT:          0 MISS:          0 MSHR_MERGE:          0
cpu0->cpu0_STLB PREFETCH REQUESTED:          0 ISSUED:          0 USEFUL:          0 USELESS:          0
cpu0->cpu0_STLB AVERAGE MISS LATENCY: 667.6 cycles
cpu0->cpu0_L2C TOTAL        ACCESS:   11017708 HIT:    6187593 MISS:    4830115 MSHR_MERGE:          0
cpu0->cpu0_L2C LOAD         ACCESS:    6564966 HIT:    1812548 MISS:    4752418 MSHR_MERGE:          0
cpu0->cpu0_L2C RFO          ACCESS:       9630 HIT:       8991 MISS:        639 MSHR_MERGE:          0
cpu0->cpu0_L2C PREFETCH     ACCESS:          0 HIT:          0 MISS:          0 MSHR_MERGE:          0
cpu0->cpu0_L2C WRITE        ACCESS:    4364157 HIT:    4364157 MISS:          0 MSHR_MERGE:          0
cpu0->cpu0_L2C TRANSLATION  ACCESS:      78955 HIT:       1897 MISS:      77058 MSHR_MERGE:          0
cpu0->cpu0_L2C PREFETCH REQUESTED:          0 ISSUED:          0 USEFUL:          0 USELESS:          0
cpu0->cpu0_L2C AVERAGE MISS LATENCY: 223.3 cycles
cpu0->cpu0_L1I TOTAL        ACCESS:   93147253 HIT:   93146847 MISS:        406 MSHR_MERGE:        129
cpu0->cpu0_L1I LOAD         ACCESS:   93147253 HIT:   93146847 MISS:        406 MSHR_MERGE:        129
cpu0->cpu0_L1I RFO          ACCESS:          0 HIT:          0 MISS:          0 MSHR_MERGE:          0
cpu0->cpu0_L1I PREFETCH     ACCESS:          0 HIT:          0 MISS:          0 MSHR_MERGE:          0
cpu0->cpu0_L1I WRITE        ACCESS:          0 HIT:          0 MISS:          0 MSHR_MERGE:          0
cpu0->cpu0_L1I TRANSLATION  ACCESS:          0 HIT:          0 MISS:          0 MSHR_MERGE:          0
cpu0->cpu0_L1I PREFETCH REQUESTED:          0 ISSUED:          0 USEFUL:          0 USELESS:          0
cpu0->cpu0_L1I AVERAGE MISS LATENCY: 205.4 cycles
cpu0->cpu0_L1D TOTAL        ACCESS:  158344011 HIT:  130383860 MISS:   27960151 MSHR_MERGE:   21306877
cpu0->cpu0_L1D LOAD         ACCESS:  123003065 HIT:   95152406 MISS:   27850659 MSHR_MERGE:   21285970
cpu0->cpu0_L1D RFO          ACCESS:          0 HIT:          0 MISS:          0 MSHR_MERGE:          0
cpu0->cpu0_L1D PREFETCH     ACCESS:          0 HIT:          0 MISS:          0 MSHR_MERGE:          0
cpu0->cpu0_L1D WRITE        ACCESS:   35204338 HIT:   35173802 MISS:      30536 MSHR_MERGE:      20906
cpu0->cpu0_L1D TRANSLATION  ACCESS:     136608 HIT:      57652 MISS:      78956 MSHR_MERGE:          1
cpu0->cpu0_L1D PREFETCH REQUESTED:          0 ISSUED:          0 USEFUL:          0 USELESS:          0
cpu0->cpu0_L1D AVERAGE MISS LATENCY: 170.8 cycles
cpu0->cpu0_ITLB TOTAL        ACCESS:   75716120 HIT:   75716095 MISS:         25 MSHR_MERGE:         14
cpu0->cpu0_ITLB LOAD         ACCESS:   75716120 HIT:   75716095 MISS:         25 MSHR_MERGE:         14
cpu0->cpu0_ITLB RFO          ACCESS:          0 HIT:          0 MISS:          0 MSHR_MERGE:          0
cpu0->cpu0_ITLB PREFETCH     ACCESS:          0 HIT:          0 MISS:          0 MSHR_MERGE:          0
cpu0->cpu0_ITLB WRITE        ACCESS:          0 HIT:          0 MISS:          0 MSHR_MERGE:          0
cpu0->cpu0_ITLB TRANSLATION  ACCESS:          0 HIT:          0 MISS:          0 MSHR_MERGE:          0
cpu0->cpu0_ITLB PREFETCH REQUESTED:          0 ISSUED:          0 USEFUL:          0 USELESS:          0
cpu0->cpu0_ITLB AVERAGE MISS LATENCY: 827 cycles
cpu0->cpu0_DTLB TOTAL        ACCESS:  148300797 HIT:  147862917 MISS:     437880 MSHR_MERGE:     321457
cpu0->cpu0_DTLB LOAD         ACCESS:  148300797 HIT:  147862917 MISS:     437880 MSHR_MERGE:     321457
cpu0->cpu0_DTLB RFO          ACCESS:          0 HIT:          0 MISS:          0 MSHR_MERGE:          0
cpu0->cpu0_DTLB PREFETCH     ACCESS:          0 HIT:          0 MISS:          0 MSHR_MERGE:          0
cpu0->cpu0_DTLB WRITE        ACCESS:          0 HIT:          0 MISS:          0 MSHR_MERGE:          0
cpu0->cpu0_DTLB TRANSLATION  ACCESS:          0 HIT:          0 MISS:          0 MSHR_MERGE:          0
cpu0->cpu0_DTLB PREFETCH REQUESTED:          0 ISSUED:          0 USEFUL:          0 USELESS:          0
cpu0->cpu0_DTLB AVERAGE MISS LATENCY: 396.5 cycles
cpu0->LLC TOTAL        ACCESS:    9185118 HIT:    4614646 MISS:    4570472 MSHR_MERGE:          0
cpu0->LLC LOAD         ACCESS:    4752418 HIT:     295242 MISS:    4457176 MSHR_MERGE:          0
cpu0->LLC RFO          ACCESS:        639 HIT:        630 MISS:          9 MSHR_MERGE:          0
cpu0->LLC PREFETCH     ACCESS:          0 HIT:          0 MISS:          0 MSHR_MERGE:          0
cpu0->LLC WRITE        ACCESS:    4355003 HIT:    4318763 MISS:      36240 MSHR_MERGE:          0
cpu0->LLC TRANSLATION  ACCESS:      77058 HIT:         11 MISS:      77047 MSHR_MERGE:          0
cpu0->LLC PREFETCH REQUESTED:          0 ISSUED:          0 USEFUL:          0 USELESS:          0
cpu0->LLC AVERAGE MISS LATENCY: 219.2 cycles

DRAM Statistics

Channel 0 RQ ROW_BUFFER_HIT:      55813
  ROW_BUFFER_MISS:    4478412
  AVG DBUS CONGESTED CYCLE: 8.517
Channel 0 WQ ROW_BUFFER_HIT:    1597362
  ROW_BUFFER_MISS:    2757295
  FULL:          0
Channel 0 REFRESHES ISSUED:     106363
ADAPTIVE LLC [LRU vs SRRIP] final_psel: 6 (midpoint=512) followers_use: LRU
ADAPTIVE LLC lru_leader_misses: 170232 srrip_leader_misses: 212884
ADAPTIVE LLC follower_lru_fills: 5096201 follower_srrip_fills: 16240
ADAPTIVE LLC total_evictions: 5462789
