[VMEM] WARNING: physical memory size is smaller than virtual memory size.

*** ChampSim Multicore Out-of-Order Simulator ***
Warmup Instructions: 100000000
Simulation Instructions: 500000000
Number of CPUs: 1
Page size: 4096

Off-chip DRAM Size: 16 GiB Channels: 1 Width: 64-bit Data Rate: 3205 MT/s
Heartbeat CPU 0 instructions: 10000001 cycles: 2966587 heartbeat IPC: 3.371 cumulative IPC: 3.371 (Simulation time: 00 hr 01 min 54 sec)
Heartbeat CPU 0 instructions: 20000002 cycles: 5929086 heartbeat IPC: 3.376 cumulative IPC: 3.373 (Simulation time: 00 hr 03 min 24 sec)
Heartbeat CPU 0 instructions: 30000002 cycles: 8885496 heartbeat IPC: 3.382 cumulative IPC: 3.376 (Simulation time: 00 hr 04 min 54 sec)
Heartbeat CPU 0 instructions: 40000003 cycles: 11840305 heartbeat IPC: 3.384 cumulative IPC: 3.378 (Simulation time: 00 hr 06 min 25 sec)
Heartbeat CPU 0 instructions: 50000003 cycles: 14802215 heartbeat IPC: 3.376 cumulative IPC: 3.378 (Simulation time: 00 hr 07 min 58 sec)
Heartbeat CPU 0 instructions: 60000006 cycles: 17687039 heartbeat IPC: 3.466 cumulative IPC: 3.392 (Simulation time: 00 hr 09 min 32 sec)
Heartbeat CPU 0 instructions: 70000006 cycles: 20522295 heartbeat IPC: 3.527 cumulative IPC: 3.411 (Simulation time: 00 hr 11 min 05 sec)
Heartbeat CPU 0 instructions: 80000006 cycles: 23358941 heartbeat IPC: 3.525 cumulative IPC: 3.425 (Simulation time: 00 hr 12 min 40 sec)
Heartbeat CPU 0 instructions: 90000007 cycles: 26196457 heartbeat IPC: 3.524 cumulative IPC: 3.436 (Simulation time: 00 hr 14 min 13 sec)
Warmup finished CPU 0 instructions: 100000003 cycles: 29033414 cumulative IPC: 3.444 (Simulation time: 00 hr 15 min 46 sec)
Warmup complete CPU 0 instructions: 100000003 cycles: 29033414 cumulative IPC: 3.444 (Simulation time: 00 hr 15 min 46 sec)
Heartbeat CPU 0 instructions: 100000008 cycles: 29033415 heartbeat IPC: 3.525 cumulative IPC: 5 (Simulation time: 00 hr 15 min 46 sec)
Heartbeat CPU 0 instructions: 110000009 cycles: 36448712 heartbeat IPC: 1.349 cumulative IPC: 1.349 (Simulation time: 00 hr 18 min 21 sec)
Heartbeat CPU 0 instructions: 120000010 cycles: 43780614 heartbeat IPC: 1.364 cumulative IPC: 1.356 (Simulation time: 00 hr 20 min 55 sec)
Heartbeat CPU 0 instructions: 130000012 cycles: 51180189 heartbeat IPC: 1.351 cumulative IPC: 1.355 (Simulation time: 00 hr 23 min 31 sec)
Heartbeat CPU 0 instructions: 140000012 cycles: 58582114 heartbeat IPC: 1.351 cumulative IPC: 1.354 (Simulation time: 00 hr 26 min 08 sec)
Heartbeat CPU 0 instructions: 150000014 cycles: 66045274 heartbeat IPC: 1.34 cumulative IPC: 1.351 (Simulation time: 00 hr 28 min 45 sec)
Heartbeat CPU 0 instructions: 160000014 cycles: 73287443 heartbeat IPC: 1.381 cumulative IPC: 1.356 (Simulation time: 00 hr 31 min 20 sec)
Heartbeat CPU 0 instructions: 170000015 cycles: 80500604 heartbeat IPC: 1.386 cumulative IPC: 1.36 (Simulation time: 00 hr 33 min 54 sec)
Heartbeat CPU 0 instructions: 180000019 cycles: 87730028 heartbeat IPC: 1.383 cumulative IPC: 1.363 (Simulation time: 00 hr 36 min 30 sec)
Heartbeat CPU 0 instructions: 190000022 cycles: 94876175 heartbeat IPC: 1.399 cumulative IPC: 1.367 (Simulation time: 00 hr 39 min 06 sec)
Heartbeat CPU 0 instructions: 200000022 cycles: 102074289 heartbeat IPC: 1.389 cumulative IPC: 1.369 (Simulation time: 00 hr 41 min 41 sec)
Heartbeat CPU 0 instructions: 210000023 cycles: 109328744 heartbeat IPC: 1.378 cumulative IPC: 1.37 (Simulation time: 00 hr 44 min 16 sec)
Heartbeat CPU 0 instructions: 220000023 cycles: 116599759 heartbeat IPC: 1.375 cumulative IPC: 1.37 (Simulation time: 00 hr 46 min 50 sec)
Heartbeat CPU 0 instructions: 230000024 cycles: 123779851 heartbeat IPC: 1.393 cumulative IPC: 1.372 (Simulation time: 00 hr 49 min 26 sec)
Heartbeat CPU 0 instructions: 240000024 cycles: 131174726 heartbeat IPC: 1.352 cumulative IPC: 1.371 (Simulation time: 00 hr 52 min 03 sec)
Heartbeat CPU 0 instructions: 250000025 cycles: 138346494 heartbeat IPC: 1.394 cumulative IPC: 1.372 (Simulation time: 00 hr 54 min 37 sec)
Heartbeat CPU 0 instructions: 260000029 cycles: 145521997 heartbeat IPC: 1.394 cumulative IPC: 1.374 (Simulation time: 00 hr 57 min 10 sec)
Heartbeat CPU 0 instructions: 270000031 cycles: 152782062 heartbeat IPC: 1.377 cumulative IPC: 1.374 (Simulation time: 00 hr 59 min 45 sec)
Heartbeat CPU 0 instructions: 280000031 cycles: 160006615 heartbeat IPC: 1.384 cumulative IPC: 1.374 (Simulation time: 01 hr 02 min 19 sec)
Heartbeat CPU 0 instructions: 290000035 cycles: 167208804 heartbeat IPC: 1.388 cumulative IPC: 1.375 (Simulation time: 01 hr 04 min 53 sec)
Heartbeat CPU 0 instructions: 300000039 cycles: 174450643 heartbeat IPC: 1.381 cumulative IPC: 1.375 (Simulation time: 01 hr 07 min 28 sec)
Heartbeat CPU 0 instructions: 310000040 cycles: 181677173 heartbeat IPC: 1.384 cumulative IPC: 1.376 (Simulation time: 01 hr 10 min 04 sec)
Heartbeat CPU 0 instructions: 320000043 cycles: 188911737 heartbeat IPC: 1.382 cumulative IPC: 1.376 (Simulation time: 01 hr 12 min 41 sec)
Heartbeat CPU 0 instructions: 330000044 cycles: 196115399 heartbeat IPC: 1.388 cumulative IPC: 1.377 (Simulation time: 01 hr 15 min 16 sec)
Heartbeat CPU 0 instructions: 340000044 cycles: 203450883 heartbeat IPC: 1.363 cumulative IPC: 1.376 (Simulation time: 01 hr 17 min 53 sec)
Heartbeat CPU 0 instructions: 350000047 cycles: 210706963 heartbeat IPC: 1.378 cumulative IPC: 1.376 (Simulation time: 01 hr 20 min 30 sec)
Heartbeat CPU 0 instructions: 360000051 cycles: 217912418 heartbeat IPC: 1.388 cumulative IPC: 1.377 (Simulation time: 01 hr 23 min 07 sec)
Heartbeat CPU 0 instructions: 370000053 cycles: 225133155 heartbeat IPC: 1.385 cumulative IPC: 1.377 (Simulation time: 01 hr 25 min 44 sec)
Heartbeat CPU 0 instructions: 380000054 cycles: 232375816 heartbeat IPC: 1.381 cumulative IPC: 1.377 (Simulation time: 01 hr 28 min 22 sec)
Heartbeat CPU 0 instructions: 390000057 cycles: 239577527 heartbeat IPC: 1.389 cumulative IPC: 1.377 (Simulation time: 01 hr 31 min 00 sec)
Heartbeat CPU 0 instructions: 400000057 cycles: 246781982 heartbeat IPC: 1.388 cumulative IPC: 1.378 (Simulation time: 01 hr 33 min 38 sec)
Heartbeat CPU 0 instructions: 410000059 cycles: 254006048 heartbeat IPC: 1.384 cumulative IPC: 1.378 (Simulation time: 01 hr 36 min 16 sec)
Heartbeat CPU 0 instructions: 420000061 cycles: 261211482 heartbeat IPC: 1.388 cumulative IPC: 1.378 (Simulation time: 01 hr 38 min 53 sec)
Heartbeat CPU 0 instructions: 430000062 cycles: 268589440 heartbeat IPC: 1.355 cumulative IPC: 1.378 (Simulation time: 01 hr 41 min 35 sec)
Heartbeat CPU 0 instructions: 440000062 cycles: 275820688 heartbeat IPC: 1.383 cumulative IPC: 1.378 (Simulation time: 01 hr 44 min 14 sec)
Heartbeat CPU 0 instructions: 450000064 cycles: 283053041 heartbeat IPC: 1.383 cumulative IPC: 1.378 (Simulation time: 01 hr 46 min 54 sec)
Heartbeat CPU 0 instructions: 460000066 cycles: 290346877 heartbeat IPC: 1.371 cumulative IPC: 1.378 (Simulation time: 01 hr 49 min 33 sec)
Heartbeat CPU 0 instructions: 470000070 cycles: 297537148 heartbeat IPC: 1.391 cumulative IPC: 1.378 (Simulation time: 01 hr 52 min 11 sec)
Heartbeat CPU 0 instructions: 480000074 cycles: 304785480 heartbeat IPC: 1.38 cumulative IPC: 1.378 (Simulation time: 01 hr 54 min 52 sec)
Heartbeat CPU 0 instructions: 490000075 cycles: 312016010 heartbeat IPC: 1.383 cumulative IPC: 1.378 (Simulation time: 01 hr 57 min 32 sec)
Heartbeat CPU 0 instructions: 500000076 cycles: 319224863 heartbeat IPC: 1.387 cumulative IPC: 1.378 (Simulation time: 02 hr 00 min 11 sec)
Heartbeat CPU 0 instructions: 510000076 cycles: 326471528 heartbeat IPC: 1.38 cumulative IPC: 1.378 (Simulation time: 02 hr 02 min 51 sec)
Heartbeat CPU 0 instructions: 520000076 cycles: 333854507 heartbeat IPC: 1.354 cumulative IPC: 1.378 (Simulation time: 02 hr 05 min 33 sec)
Heartbeat CPU 0 instructions: 530000080 cycles: 341080270 heartbeat IPC: 1.384 cumulative IPC: 1.378 (Simulation time: 02 hr 08 min 13 sec)
Heartbeat CPU 0 instructions: 540000083 cycles: 348274361 heartbeat IPC: 1.39 cumulative IPC: 1.378 (Simulation time: 02 hr 10 min 52 sec)
Heartbeat CPU 0 instructions: 550000086 cycles: 355527557 heartbeat IPC: 1.379 cumulative IPC: 1.378 (Simulation time: 02 hr 13 min 33 sec)
Heartbeat CPU 0 instructions: 560000090 cycles: 362799065 heartbeat IPC: 1.375 cumulative IPC: 1.378 (Simulation time: 02 hr 16 min 13 sec)
Heartbeat CPU 0 instructions: 570000090 cycles: 370019894 heartbeat IPC: 1.385 cumulative IPC: 1.378 (Simulation time: 02 hr 18 min 54 sec)
Heartbeat CPU 0 instructions: 580000091 cycles: 377237796 heartbeat IPC: 1.385 cumulative IPC: 1.379 (Simulation time: 02 hr 21 min 34 sec)
Heartbeat CPU 0 instructions: 590000093 cycles: 384455947 heartbeat IPC: 1.385 cumulative IPC: 1.379 (Simulation time: 02 hr 24 min 15 sec)
Simulation finished CPU 0 instructions: 500000000 cycles: 362705176 cumulative IPC: 1.379 (Simulation time: 02 hr 26 min 56 sec)
Simulation complete CPU 0 instructions: 500000000 cycles: 362705176 cumulative IPC: 1.379 (Simulation time: 02 hr 26 min 56 sec)

ChampSim completed all CPUs

=== Simulation ===
CPU 0 runs traces/T3.xz

Region of Interest Statistics

CPU 0 cumulative IPC: 1.379 instructions: 500000000 cycles: 362705176
CPU 0 Branch Prediction Accuracy: 99.85% MPKI: 0.001804 Average ROB Occupancy at Mispredict: 278.2
Branch type MPKI
BRANCH_DIRECT_JUMP: 2e-06
BRANCH_INDIRECT: 1e-05
BRANCH_CONDITIONAL: 0.001792
BRANCH_DIRECT_CALL: 0
BRANCH_INDIRECT_CALL: 0
BRANCH_RETURN: 0

cpu0->cpu0_STLB TOTAL        ACCESS:   37705772 HIT:   37644902 MISS:      60870 MSHR_MERGE:          0
cpu0->cpu0_STLB LOAD         ACCESS:   37705772 HIT:   37644902 MISS:      60870 MSHR_MERGE:          0
cpu0->cpu0_STLB RFO          ACCESS:          0 HIT:          0 MISS:          0 MSHR_MERGE:          0
cpu0->cpu0_STLB PREFETCH     ACCESS:          0 HIT:          0 MISS:          0 MSHR_MERGE:          0
cpu0->cpu0_STLB WRITE        ACCESS:          0 HIT:          0 MISS:          0 MSHR_MERGE:          0
cpu0->cpu0_STLB TRANSLATION  ACCESS:          0 HIT:          0 MISS:          0 MSHR_MERGE:          0
cpu0->cpu0_STLB PREFETCH REQUESTED:          0 ISSUED:          0 USEFUL:          0 USELESS:          0
cpu0->cpu0_STLB AVERAGE MISS LATENCY: 544.7 cycles
cpu0->cpu0_L2C TOTAL        ACCESS:   63090628 HIT:   56481093 MISS:    6609535 MSHR_MERGE:          0
cpu0->cpu0_L2C LOAD         ACCESS:   54412847 HIT:   48166425 MISS:    6246422 MSHR_MERGE:          0
cpu0->cpu0_L2C RFO          ACCESS:    4065255 HIT:    3840067 MISS:     225188 MSHR_MERGE:          0
cpu0->cpu0_L2C PREFETCH     ACCESS:          0 HIT:          0 MISS:          0 MSHR_MERGE:          0
cpu0->cpu0_L2C WRITE        ACCESS:    4457479 HIT:    4457469 MISS:         10 MSHR_MERGE:          0
cpu0->cpu0_L2C TRANSLATION  ACCESS:     155047 HIT:      17132 MISS:     137915 MSHR_MERGE:          0
cpu0->cpu0_L2C PREFETCH REQUESTED:          0 ISSUED:          0 USEFUL:          0 USELESS:          0
cpu0->cpu0_L2C AVERAGE MISS LATENCY: 150 cycles
cpu0->cpu0_L1I TOTAL        ACCESS:   97212202 HIT:   97212202 MISS:          0 MSHR_MERGE:          0
cpu0->cpu0_L1I LOAD         ACCESS:   97212202 HIT:   97212202 MISS:          0 MSHR_MERGE:          0
cpu0->cpu0_L1I RFO          ACCESS:          0 HIT:          0 MISS:          0 MSHR_MERGE:          0
cpu0->cpu0_L1I PREFETCH     ACCESS:          0 HIT:          0 MISS:          0 MSHR_MERGE:          0
cpu0->cpu0_L1I WRITE        ACCESS:          0 HIT:          0 MISS:          0 MSHR_MERGE:          0
cpu0->cpu0_L1I TRANSLATION  ACCESS:          0 HIT:          0 MISS:          0 MSHR_MERGE:          0
cpu0->cpu0_L1I PREFETCH REQUESTED:          0 ISSUED:          0 USEFUL:          0 USELESS:          0
cpu0->cpu0_L1I AVERAGE MISS LATENCY: - cycles
cpu0->cpu0_L1D TOTAL        ACCESS:  153983258 HIT:   87126643 MISS:   66856615 MSHR_MERGE:    8091239
cpu0->cpu0_L1D LOAD         ACCESS:   96701661 HIT:   34490927 MISS:   62210734 MSHR_MERGE:    7668128
cpu0->cpu0_L1D RFO          ACCESS:          0 HIT:          0 MISS:          0 MSHR_MERGE:          0
cpu0->cpu0_L1D PREFETCH     ACCESS:          0 HIT:          0 MISS:          0 MSHR_MERGE:          0
cpu0->cpu0_L1D WRITE        ACCESS:   57125862 HIT:   52635198 MISS:    4490664 MSHR_MERGE:     422941
cpu0->cpu0_L1D TRANSLATION  ACCESS:     155735 HIT:        518 MISS:     155217 MSHR_MERGE:        170
cpu0->cpu0_L1D PREFETCH REQUESTED:          0 ISSUED:          0 USEFUL:          0 USELESS:          0
cpu0->cpu0_L1D AVERAGE MISS LATENCY: 25.58 cycles
cpu0->cpu0_ITLB TOTAL        ACCESS:   78261395 HIT:   78261395 MISS:          0 MSHR_MERGE:          0
cpu0->cpu0_ITLB LOAD         ACCESS:   78261395 HIT:   78261395 MISS:          0 MSHR_MERGE:          0
cpu0->cpu0_ITLB RFO          ACCESS:          0 HIT:          0 MISS:          0 MSHR_MERGE:          0
cpu0->cpu0_ITLB PREFETCH     ACCESS:          0 HIT:          0 MISS:          0 MSHR_MERGE:          0
cpu0->cpu0_ITLB WRITE        ACCESS:          0 HIT:          0 MISS:          0 MSHR_MERGE:          0
cpu0->cpu0_ITLB TRANSLATION  ACCESS:          0 HIT:          0 MISS:          0 MSHR_MERGE:          0
cpu0->cpu0_ITLB PREFETCH REQUESTED:          0 ISSUED:          0 USEFUL:          0 USELESS:          0
cpu0->cpu0_ITLB AVERAGE MISS LATENCY: - cycles
cpu0->cpu0_DTLB TOTAL        ACCESS:  142295950 HIT:   91593667 MISS:   50702283 MSHR_MERGE:   12996511
cpu0->cpu0_DTLB LOAD         ACCESS:  142295950 HIT:   91593667 MISS:   50702283 MSHR_MERGE:   12996511
cpu0->cpu0_DTLB RFO          ACCESS:          0 HIT:          0 MISS:          0 MSHR_MERGE:          0
cpu0->cpu0_DTLB PREFETCH     ACCESS:          0 HIT:          0 MISS:          0 MSHR_MERGE:          0
cpu0->cpu0_DTLB WRITE        ACCESS:          0 HIT:          0 MISS:          0 MSHR_MERGE:          0
cpu0->cpu0_DTLB TRANSLATION  ACCESS:          0 HIT:          0 MISS:          0 MSHR_MERGE:          0
cpu0->cpu0_DTLB PREFETCH REQUESTED:          0 ISSUED:          0 USEFUL:          0 USELESS:          0
cpu0->cpu0_DTLB AVERAGE MISS LATENCY: 5.922 cycles
cpu0->LLC TOTAL        ACCESS:    7245754 HIT:    3280824 MISS:    3964930 MSHR_MERGE:          0
cpu0->LLC LOAD         ACCESS:    6246418 HIT:    2375629 MISS:    3870789 MSHR_MERGE:          0
cpu0->LLC RFO          ACCESS:     223129 HIT:     223129 MISS:          0 MSHR_MERGE:          0
cpu0->LLC PREFETCH     ACCESS:          0 HIT:          0 MISS:          0 MSHR_MERGE:          0
cpu0->LLC WRITE        ACCESS:     638292 HIT:     637907 MISS:        385 MSHR_MERGE:          0
cpu0->LLC TRANSLATION  ACCESS:     137915 HIT:      44159 MISS:      93756 MSHR_MERGE:          0
cpu0->LLC PREFETCH REQUESTED:          0 ISSUED:          0 USEFUL:          0 USELESS:          0
cpu0->LLC AVERAGE MISS LATENCY: 224 cycles

DRAM Statistics

Channel 0 RQ ROW_BUFFER_HIT:        273
  ROW_BUFFER_MISS:    3964272
  AVG DBUS CONGESTED CYCLE: 5.265
Channel 0 WQ ROW_BUFFER_HIT:      58447
  ROW_BUFFER_MISS:     419623
  FULL:          0
Channel 0 REFRESHES ISSUED:      30225
ADAPTIVE LLC [LRU vs SRRIP] final_psel: 895 (midpoint=512) followers_use: SRRIP
ADAPTIVE LLC lru_leader_misses: 141986 srrip_leader_misses: 140229
ADAPTIVE LLC follower_lru_fills: 119897 follower_srrip_fills: 4098275
ADAPTIVE LLC total_evictions: 4467619
