[VMEM] WARNING: physical memory size is smaller than virtual memory size.
WARNING: option --warmup_instructions is deprecated. Use --warmup-instructions instead.
WARNING: option --simulation_instructions is deprecated. Use --simulation-instructions instead.

*** ChampSim Multicore Out-of-Order Simulator ***
Warmup Instructions: 20000000
Simulation Instructions: 50000000
Number of CPUs: 1
Page size: 8192

Off-chip DRAM Size: 16 GiB Channels: 1 Width: 64-bit Data Rate: 3205 MT/s
Heartbeat CPU 0 instructions: 10000001 cycles: 4633294 heartbeat IPC: 2.158 cumulative IPC: 2.158 (Simulation time: 00 hr 00 min 46 sec)
Heartbeat CPU 0 instructions: 20000002 cycles: 9212858 heartbeat IPC: 2.184 cumulative IPC: 2.171 (Simulation time: 00 hr 01 min 32 sec)
Warmup finished CPU 0 instructions: 20000002 cycles: 9212858 cumulative IPC: 2.171 (Simulation time: 00 hr 01 min 32 sec)
Warmup complete CPU 0 instructions: 20000002 cycles: 9212858 cumulative IPC: 2.171 (Simulation time: 00 hr 01 min 32 sec)
Heartbeat CPU 0 instructions: 30000005 cycles: 38858245 heartbeat IPC: 0.3373 cumulative IPC: 0.3373 (Simulation time: 00 hr 03 min 34 sec)
Heartbeat CPU 0 instructions: 40000005 cycles: 68256229 heartbeat IPC: 0.3402 cumulative IPC: 0.3387 (Simulation time: 00 hr 05 min 35 sec)
Heartbeat CPU 0 instructions: 50000007 cycles: 98114622 heartbeat IPC: 0.3349 cumulative IPC: 0.3375 (Simulation time: 00 hr 07 min 38 sec)
Heartbeat CPU 0 instructions: 60000007 cycles: 127605873 heartbeat IPC: 0.3391 cumulative IPC: 0.3379 (Simulation time: 00 hr 09 min 40 sec)
Simulation finished CPU 0 instructions: 50000001 cycles: 148671976 cumulative IPC: 0.3363 (Simulation time: 00 hr 11 min 40 sec)
Simulation complete CPU 0 instructions: 50000001 cycles: 148671976 cumulative IPC: 0.3363 (Simulation time: 00 hr 11 min 40 sec)

ChampSim completed all CPUs

=== Simulation ===
CPU 0 runs traces/605.mcf_s-1152B.champsimtrace.xz

Region of Interest Statistics

CPU 0 cumulative IPC: 0.3363 instructions: 50000001 cycles: 148671976
CPU 0 Branch Prediction Accuracy: 90.19% MPKI: 24.48 Average ROB Occupancy at Mispredict: 21.37
Branch type MPKI
BRANCH_DIRECT_JUMP: 0.2057
BRANCH_INDIRECT: 0
BRANCH_CONDITIONAL: 24.27
BRANCH_DIRECT_CALL: 0
BRANCH_INDIRECT_CALL: 0.0036
BRANCH_RETURN: 2e-05

cpu0->cpu0_STLB TOTAL        ACCESS:    1006141 HIT:    1000384 MISS:       5757 MSHR_MERGE:          0
cpu0->cpu0_STLB LOAD         ACCESS:    1006141 HIT:    1000384 MISS:       5757 MSHR_MERGE:          0
cpu0->cpu0_STLB RFO          ACCESS:          0 HIT:          0 MISS:          0 MSHR_MERGE:          0
cpu0->cpu0_STLB PREFETCH     ACCESS:          0 HIT:          0 MISS:          0 MSHR_MERGE:          0
cpu0->cpu0_STLB WRITE        ACCESS:          0 HIT:          0 MISS:          0 MSHR_MERGE:          0
cpu0->cpu0_STLB TRANSLATION  ACCESS:          0 HIT:          0 MISS:          0 MSHR_MERGE:          0
cpu0->cpu0_STLB PREFETCH REQUESTED:          0 ISSUED:          0 USEFUL:          0 USELESS:          0
cpu0->cpu0_STLB AVERAGE MISS LATENCY: 628.5 cycles
cpu0->cpu0_L2C TOTAL        ACCESS:    9311206 HIT:    3529350 MISS:    5781856 MSHR_MERGE:     218080
cpu0->cpu0_L2C LOAD         ACCESS:    2552734 HIT:    1088439 MISS:    1464295 MSHR_MERGE:      39818
cpu0->cpu0_L2C RFO          ACCESS:     187386 HIT:      25178 MISS:     162208 MSHR_MERGE:          1
cpu0->cpu0_L2C PREFETCH     ACCESS:    6296937 HIT:    2151519 MISS:    4145418 MSHR_MERGE:     178261
cpu0->cpu0_L2C WRITE        ACCESS:     265799 HIT:     262785 MISS:       3014 MSHR_MERGE:          0
cpu0->cpu0_L2C TRANSLATION  ACCESS:       8350 HIT:       1429 MISS:       6921 MSHR_MERGE:          0
cpu0->cpu0_L2C PREFETCH REQUESTED:    6297944 ISSUED:    6296940 USEFUL:     819673 USELESS:    3147062
cpu0->cpu0_L2C AVERAGE MISS LATENCY: 56.24 cycles
cpu0->cpu0_L1I TOTAL        ACCESS:     434252 HIT:     434252 MISS:          0 MSHR_MERGE:          0
cpu0->cpu0_L1I LOAD         ACCESS:     434252 HIT:     434252 MISS:          0 MSHR_MERGE:          0
cpu0->cpu0_L1I RFO          ACCESS:          0 HIT:          0 MISS:          0 MSHR_MERGE:          0
cpu0->cpu0_L1I PREFETCH     ACCESS:          0 HIT:          0 MISS:          0 MSHR_MERGE:          0
cpu0->cpu0_L1I WRITE        ACCESS:          0 HIT:          0 MISS:          0 MSHR_MERGE:          0
cpu0->cpu0_L1I TRANSLATION  ACCESS:          0 HIT:          0 MISS:          0 MSHR_MERGE:          0
cpu0->cpu0_L1I PREFETCH REQUESTED:          0 ISSUED:          0 USEFUL:          0 USELESS:          0
cpu0->cpu0_L1I AVERAGE MISS LATENCY: - cycles
cpu0->cpu0_L1D TOTAL        ACCESS:   17981035 HIT:   14396161 MISS:    3584874 MSHR_MERGE:     836400
cpu0->cpu0_L1D LOAD         ACCESS:   12805128 HIT:    9721968 MISS:    3083160 MSHR_MERGE:     530426
cpu0->cpu0_L1D RFO          ACCESS:          0 HIT:          0 MISS:          0 MSHR_MERGE:          0
cpu0->cpu0_L1D PREFETCH     ACCESS:          0 HIT:          0 MISS:          0 MSHR_MERGE:          0
cpu0->cpu0_L1D WRITE        ACCESS:    5164297 HIT:    4670933 MISS:     493364 MSHR_MERGE:     305974
cpu0->cpu0_L1D TRANSLATION  ACCESS:      11610 HIT:       3260 MISS:       8350 MSHR_MERGE:          0
cpu0->cpu0_L1D PREFETCH REQUESTED:          0 ISSUED:          0 USEFUL:          0 USELESS:          0
cpu0->cpu0_L1D AVERAGE MISS LATENCY: 42.77 cycles
cpu0->cpu0_ITLB TOTAL        ACCESS:     402586 HIT:     402586 MISS:          0 MSHR_MERGE:          0
cpu0->cpu0_ITLB LOAD         ACCESS:     402586 HIT:     402586 MISS:          0 MSHR_MERGE:          0
cpu0->cpu0_ITLB RFO          ACCESS:          0 HIT:          0 MISS:          0 MSHR_MERGE:          0
cpu0->cpu0_ITLB PREFETCH     ACCESS:          0 HIT:          0 MISS:          0 MSHR_MERGE:          0
cpu0->cpu0_ITLB WRITE        ACCESS:          0 HIT:          0 MISS:          0 MSHR_MERGE:          0
cpu0->cpu0_ITLB TRANSLATION  ACCESS:          0 HIT:          0 MISS:          0 MSHR_MERGE:          0
cpu0->cpu0_ITLB PREFETCH REQUESTED:          0 ISSUED:          0 USEFUL:          0 USELESS:          0
cpu0->cpu0_ITLB AVERAGE MISS LATENCY: - cycles
cpu0->cpu0_DTLB TOTAL        ACCESS:   16842368 HIT:   15649497 MISS:    1192871 MSHR_MERGE:     186730
cpu0->cpu0_DTLB LOAD         ACCESS:   16842368 HIT:   15649497 MISS:    1192871 MSHR_MERGE:     186730
cpu0->cpu0_DTLB RFO          ACCESS:          0 HIT:          0 MISS:          0 MSHR_MERGE:          0
cpu0->cpu0_DTLB PREFETCH     ACCESS:          0 HIT:          0 MISS:          0 MSHR_MERGE:          0
cpu0->cpu0_DTLB WRITE        ACCESS:          0 HIT:          0 MISS:          0 MSHR_MERGE:          0
cpu0->cpu0_DTLB TRANSLATION  ACCESS:          0 HIT:          0 MISS:          0 MSHR_MERGE:          0
cpu0->cpu0_DTLB PREFETCH REQUESTED:          0 ISSUED:          0 USEFUL:          0 USELESS:          0
cpu0->cpu0_DTLB AVERAGE MISS LATENCY: 7.602 cycles
cpu0->LLC TOTAL        ACCESS:    5781511 HIT:    3260017 MISS:    2521494 MSHR_MERGE:          0
cpu0->LLC LOAD         ACCESS:    1424477 HIT:    1031513 MISS:     392964 MSHR_MERGE:          0
cpu0->LLC RFO          ACCESS:     162207 HIT:     156174 MISS:       6033 MSHR_MERGE:          0
cpu0->LLC PREFETCH     ACCESS:    3967157 HIT:    1858748 MISS:    2108409 MSHR_MERGE:          0
cpu0->LLC WRITE        ACCESS:     220749 HIT:     213547 MISS:       7202 MSHR_MERGE:          0
cpu0->LLC TRANSLATION  ACCESS:       6921 HIT:         35 MISS:       6886 MSHR_MERGE:          0
cpu0->LLC PREFETCH REQUESTED:          0 ISSUED:          0 USEFUL:          0 USELESS:          0
cpu0->LLC AVERAGE MISS LATENCY: 152.9 cycles

DRAM Statistics

Channel 0 RQ ROW_BUFFER_HIT:      87208
  ROW_BUFFER_MISS:    2426951
  AVG DBUS CONGESTED CYCLE: 10.53
Channel 0 WQ ROW_BUFFER_HIT:       2430
  ROW_BUFFER_MISS:       8557
  FULL:          0
Channel 0 REFRESHES ISSUED:      12390
