[VMEM] WARNING: physical memory size is smaller than virtual memory size.
WARNING: option --warmup_instructions is deprecated. Use --warmup-instructions instead.
WARNING: option --simulation_instructions is deprecated. Use --simulation-instructions instead.

*** ChampSim Multicore Out-of-Order Simulator ***
Warmup Instructions: 20000000
Simulation Instructions: 50000000
Number of CPUs: 1
Page size: 8192

Off-chip DRAM Size: 16 GiB Channels: 1 Width: 64-bit Data Rate: 3205 MT/s
Heartbeat CPU 0 instructions: 10000003 cycles: 6086561 heartbeat IPC: 1.643 cumulative IPC: 1.643 (Simulation time: 00 hr 00 min 53 sec)
Warmup finished CPU 0 instructions: 20000001 cycles: 12017915 cumulative IPC: 1.664 (Simulation time: 00 hr 01 min 48 sec)
Warmup complete CPU 0 instructions: 20000001 cycles: 12017915 cumulative IPC: 1.664 (Simulation time: 00 hr 01 min 48 sec)
Heartbeat CPU 0 instructions: 20000005 cycles: 12017916 heartbeat IPC: 1.686 cumulative IPC: 4 (Simulation time: 00 hr 01 min 48 sec)
Heartbeat CPU 0 instructions: 30000007 cycles: 31602152 heartbeat IPC: 0.5106 cumulative IPC: 0.5106 (Simulation time: 00 hr 03 min 43 sec)
Heartbeat CPU 0 instructions: 40000009 cycles: 41785720 heartbeat IPC: 0.982 cumulative IPC: 0.6719 (Simulation time: 00 hr 04 min 51 sec)
Heartbeat CPU 0 instructions: 50000009 cycles: 56834221 heartbeat IPC: 0.6645 cumulative IPC: 0.6694 (Simulation time: 00 hr 06 min 23 sec)
Heartbeat CPU 0 instructions: 60000010 cycles: 81425654 heartbeat IPC: 0.4066 cumulative IPC: 0.5763 (Simulation time: 00 hr 08 min 43 sec)
Simulation finished CPU 0 instructions: 50000001 cycles: 83938669 cumulative IPC: 0.5957 (Simulation time: 00 hr 10 min 13 sec)
Simulation complete CPU 0 instructions: 50000001 cycles: 83938669 cumulative IPC: 0.5957 (Simulation time: 00 hr 10 min 13 sec)

ChampSim completed all CPUs

=== Simulation ===
CPU 0 runs traces/429.mcf-217B.champsimtrace.xz

Region of Interest Statistics

CPU 0 cumulative IPC: 0.5957 instructions: 50000001 cycles: 83938669
CPU 0 Branch Prediction Accuracy: 98.95% MPKI: 1.194 Average ROB Occupancy at Mispredict: 121.2
Branch type MPKI
BRANCH_DIRECT_JUMP: 0
BRANCH_INDIRECT: 0
BRANCH_CONDITIONAL: 1.194
BRANCH_DIRECT_CALL: 0
BRANCH_INDIRECT_CALL: 0
BRANCH_RETURN: 0

cpu0->cpu0_STLB TOTAL        ACCESS:      58055 HIT:      56205 MISS:       1850 MSHR_MERGE:          0
cpu0->cpu0_STLB LOAD         ACCESS:      58055 HIT:      56205 MISS:       1850 MSHR_MERGE:          0
cpu0->cpu0_STLB RFO          ACCESS:          0 HIT:          0 MISS:          0 MSHR_MERGE:          0
cpu0->cpu0_STLB PREFETCH     ACCESS:          0 HIT:          0 MISS:          0 MSHR_MERGE:          0
cpu0->cpu0_STLB WRITE        ACCESS:          0 HIT:          0 MISS:          0 MSHR_MERGE:          0
cpu0->cpu0_STLB TRANSLATION  ACCESS:          0 HIT:          0 MISS:          0 MSHR_MERGE:          0
cpu0->cpu0_STLB PREFETCH REQUESTED:          0 ISSUED:          0 USEFUL:          0 USELESS:          0
cpu0->cpu0_STLB AVERAGE MISS LATENCY: 700.8 cycles
cpu0->cpu0_L2C TOTAL        ACCESS:    9506440 HIT:    3873742 MISS:    5632698 MSHR_MERGE:    2721050
cpu0->cpu0_L2C LOAD         ACCESS:    2598451 HIT:    1686031 MISS:     912420 MSHR_MERGE:     590121
cpu0->cpu0_L2C RFO          ACCESS:       1568 HIT:       1425 MISS:        143 MSHR_MERGE:          0
cpu0->cpu0_L2C PREFETCH     ACCESS:    6806808 HIT:    2090375 MISS:    4716433 MSHR_MERGE:    2130929
cpu0->cpu0_L2C WRITE        ACCESS:      96219 HIT:      95427 MISS:        792 MSHR_MERGE:          0
cpu0->cpu0_L2C TRANSLATION  ACCESS:       3394 HIT:        484 MISS:       2910 MSHR_MERGE:          0
cpu0->cpu0_L2C PREFETCH REQUESTED:    6807047 ISSUED:    6806793 USEFUL:    2257162 USELESS:     328310
cpu0->cpu0_L2C AVERAGE MISS LATENCY: 89.1 cycles
cpu0->cpu0_L1I TOTAL        ACCESS:    9421008 HIT:    9421008 MISS:          0 MSHR_MERGE:          0
cpu0->cpu0_L1I LOAD         ACCESS:    9421008 HIT:    9421008 MISS:          0 MSHR_MERGE:          0
cpu0->cpu0_L1I RFO          ACCESS:          0 HIT:          0 MISS:          0 MSHR_MERGE:          0
cpu0->cpu0_L1I PREFETCH     ACCESS:          0 HIT:          0 MISS:          0 MSHR_MERGE:          0
cpu0->cpu0_L1I WRITE        ACCESS:          0 HIT:          0 MISS:          0 MSHR_MERGE:          0
cpu0->cpu0_L1I TRANSLATION  ACCESS:          0 HIT:          0 MISS:          0 MSHR_MERGE:          0
cpu0->cpu0_L1I PREFETCH REQUESTED:          0 ISSUED:          0 USEFUL:          0 USELESS:          0
cpu0->cpu0_L1I AVERAGE MISS LATENCY: - cycles
cpu0->cpu0_L1D TOTAL        ACCESS:   16487348 HIT:   13778773 MISS:    2708575 MSHR_MERGE:     105134
cpu0->cpu0_L1D LOAD         ACCESS:    8606582 HIT:    5905005 MISS:    2701577 MSHR_MERGE:     103098
cpu0->cpu0_L1D RFO          ACCESS:          0 HIT:          0 MISS:          0 MSHR_MERGE:          0
cpu0->cpu0_L1D PREFETCH     ACCESS:          0 HIT:          0 MISS:          0 MSHR_MERGE:          0
cpu0->cpu0_L1D WRITE        ACCESS:    7877059 HIT:    7873455 MISS:       3604 MSHR_MERGE:       2036
cpu0->cpu0_L1D TRANSLATION  ACCESS:       3707 HIT:        313 MISS:       3394 MSHR_MERGE:          0
cpu0->cpu0_L1D PREFETCH REQUESTED:          0 ISSUED:          0 USEFUL:          0 USELESS:          0
cpu0->cpu0_L1D AVERAGE MISS LATENCY: 39.75 cycles
cpu0->cpu0_ITLB TOTAL        ACCESS:    8245945 HIT:    8245945 MISS:          0 MSHR_MERGE:          0
cpu0->cpu0_ITLB LOAD         ACCESS:    8245945 HIT:    8245945 MISS:          0 MSHR_MERGE:          0
cpu0->cpu0_ITLB RFO          ACCESS:          0 HIT:          0 MISS:          0 MSHR_MERGE:          0
cpu0->cpu0_ITLB PREFETCH     ACCESS:          0 HIT:          0 MISS:          0 MSHR_MERGE:          0
cpu0->cpu0_ITLB WRITE        ACCESS:          0 HIT:          0 MISS:          0 MSHR_MERGE:          0
cpu0->cpu0_ITLB TRANSLATION  ACCESS:          0 HIT:          0 MISS:          0 MSHR_MERGE:          0
cpu0->cpu0_ITLB PREFETCH REQUESTED:          0 ISSUED:          0 USEFUL:          0 USELESS:          0
cpu0->cpu0_ITLB AVERAGE MISS LATENCY: - cycles
cpu0->cpu0_DTLB TOTAL        ACCESS:   14961798 HIT:   14887753 MISS:      74045 MSHR_MERGE:      15990
cpu0->cpu0_DTLB LOAD         ACCESS:   14961798 HIT:   14887753 MISS:      74045 MSHR_MERGE:      15990
cpu0->cpu0_DTLB RFO          ACCESS:          0 HIT:          0 MISS:          0 MSHR_MERGE:          0
cpu0->cpu0_DTLB PREFETCH     ACCESS:          0 HIT:          0 MISS:          0 MSHR_MERGE:          0
cpu0->cpu0_DTLB WRITE        ACCESS:          0 HIT:          0 MISS:          0 MSHR_MERGE:          0
cpu0->cpu0_DTLB TRANSLATION  ACCESS:          0 HIT:          0 MISS:          0 MSHR_MERGE:          0
cpu0->cpu0_DTLB PREFETCH REQUESTED:          0 ISSUED:          0 USEFUL:          0 USELESS:          0
cpu0->cpu0_DTLB AVERAGE MISS LATENCY: 26.36 cycles
cpu0->LLC TOTAL        ACCESS:    2991926 HIT:     581720 MISS:    2410206 MSHR_MERGE:          0
cpu0->LLC LOAD         ACCESS:     322299 HIT:      60944 MISS:     261355 MSHR_MERGE:          0
cpu0->LLC RFO          ACCESS:        143 HIT:        113 MISS:         30 MSHR_MERGE:          0
cpu0->LLC PREFETCH     ACCESS:    2585504 HIT:     502723 MISS:    2082781 MSHR_MERGE:          0
cpu0->LLC WRITE        ACCESS:      81070 HIT:      17935 MISS:      63135 MSHR_MERGE:          0
cpu0->LLC TRANSLATION  ACCESS:       2910 HIT:          5 MISS:       2905 MSHR_MERGE:          0
cpu0->LLC PREFETCH REQUESTED:          0 ISSUED:          0 USEFUL:          0 USELESS:          0
cpu0->LLC AVERAGE MISS LATENCY: 128.9 cycles

DRAM Statistics

Channel 0 RQ ROW_BUFFER_HIT:     268932
  ROW_BUFFER_MISS:    2077680
  AVG DBUS CONGESTED CYCLE: 9.19
Channel 0 WQ ROW_BUFFER_HIT:      11982
  ROW_BUFFER_MISS:      61539
  FULL:          0
Channel 0 REFRESHES ISSUED:       6995
