[VMEM] WARNING: physical memory size is smaller than virtual memory size.
WARNING: option --warmup_instructions is deprecated. Use --warmup-instructions instead.
WARNING: option --simulation_instructions is deprecated. Use --simulation-instructions instead.

*** ChampSim Multicore Out-of-Order Simulator ***
Warmup Instructions: 20000000
Simulation Instructions: 50000000
Number of CPUs: 1
Page size: 8192

Off-chip DRAM Size: 16 GiB Channels: 1 Width: 64-bit Data Rate: 3205 MT/s
Heartbeat CPU 0 instructions: 10000000 cycles: 8242100 heartbeat IPC: 1.213 cumulative IPC: 1.213 (Simulation time: 00 hr 01 min 08 sec)
Heartbeat CPU 0 instructions: 20000000 cycles: 15270849 heartbeat IPC: 1.423 cumulative IPC: 1.31 (Simulation time: 00 hr 02 min 09 sec)
Warmup finished CPU 0 instructions: 20000000 cycles: 15270849 cumulative IPC: 1.31 (Simulation time: 00 hr 02 min 09 sec)
Warmup complete CPU 0 instructions: 20000000 cycles: 15270849 cumulative IPC: 1.31 (Simulation time: 00 hr 02 min 09 sec)
Heartbeat CPU 0 instructions: 30000002 cycles: 43438277 heartbeat IPC: 0.355 cumulative IPC: 0.355 (Simulation time: 00 hr 04 min 27 sec)
Heartbeat CPU 0 instructions: 40000004 cycles: 72006429 heartbeat IPC: 0.35 cumulative IPC: 0.3525 (Simulation time: 00 hr 06 min 48 sec)
Heartbeat CPU 0 instructions: 50000004 cycles: 100572843 heartbeat IPC: 0.3501 cumulative IPC: 0.3517 (Simulation time: 00 hr 09 min 04 sec)
Heartbeat CPU 0 instructions: 60000007 cycles: 128324453 heartbeat IPC: 0.3603 cumulative IPC: 0.3538 (Simulation time: 00 hr 11 min 16 sec)
Simulation finished CPU 0 instructions: 50000000 cycles: 139705151 cumulative IPC: 0.3579 (Simulation time: 00 hr 13 min 23 sec)
Simulation complete CPU 0 instructions: 50000000 cycles: 139705151 cumulative IPC: 0.3579 (Simulation time: 00 hr 13 min 23 sec)

ChampSim completed all CPUs

=== Simulation ===
CPU 0 runs traces/620.omnetpp_s-874B.champsimtrace.xz

Region of Interest Statistics

CPU 0 cumulative IPC: 0.3579 instructions: 50000000 cycles: 139705151
CPU 0 Branch Prediction Accuracy: 96.16% MPKI: 7.99 Average ROB Occupancy at Mispredict: 58.84
Branch type MPKI
BRANCH_DIRECT_JUMP: 0.9384
BRANCH_INDIRECT: 0.1208
BRANCH_CONDITIONAL: 5.805
BRANCH_DIRECT_CALL: 0.00236
BRANCH_INDIRECT_CALL: 0.7298
BRANCH_RETURN: 0.3936

cpu0->cpu0_STLB TOTAL        ACCESS:     827879 HIT:     690783 MISS:     137096 MSHR_MERGE:          0
cpu0->cpu0_STLB LOAD         ACCESS:     827879 HIT:     690783 MISS:     137096 MSHR_MERGE:          0
cpu0->cpu0_STLB RFO          ACCESS:          0 HIT:          0 MISS:          0 MSHR_MERGE:          0
cpu0->cpu0_STLB PREFETCH     ACCESS:          0 HIT:          0 MISS:          0 MSHR_MERGE:          0
cpu0->cpu0_STLB WRITE        ACCESS:          0 HIT:          0 MISS:          0 MSHR_MERGE:          0
cpu0->cpu0_STLB TRANSLATION  ACCESS:          0 HIT:          0 MISS:          0 MSHR_MERGE:          0
cpu0->cpu0_STLB PREFETCH REQUESTED:          0 ISSUED:          0 USEFUL:          0 USELESS:          0
cpu0->cpu0_STLB AVERAGE MISS LATENCY: 350.4 cycles
cpu0->cpu0_L2C TOTAL        ACCESS:    3129458 HIT:    1359978 MISS:    1769480 MSHR_MERGE:     124181
cpu0->cpu0_L2C LOAD         ACCESS:     933774 HIT:     358575 MISS:     575199 MSHR_MERGE:      19479
cpu0->cpu0_L2C RFO          ACCESS:     139200 HIT:      57639 MISS:      81561 MSHR_MERGE:       2950
cpu0->cpu0_L2C PREFETCH     ACCESS:    1254541 HIT:     422004 MISS:     832537 MSHR_MERGE:     101752
cpu0->cpu0_L2C WRITE        ACCESS:     508603 HIT:     504312 MISS:       4291 MSHR_MERGE:          0
cpu0->cpu0_L2C TRANSLATION  ACCESS:     293340 HIT:      17448 MISS:     275892 MSHR_MERGE:          0
cpu0->cpu0_L2C PREFETCH REQUESTED:    1254548 ISSUED:    1254541 USEFUL:     172623 USELESS:     558471
cpu0->cpu0_L2C AVERAGE MISS LATENCY: 137.5 cycles
cpu0->cpu0_L1I TOTAL        ACCESS:    7885310 HIT:    7859984 MISS:      25326 MSHR_MERGE:       6862
cpu0->cpu0_L1I LOAD         ACCESS:    7885310 HIT:    7859984 MISS:      25326 MSHR_MERGE:       6862
cpu0->cpu0_L1I RFO          ACCESS:          0 HIT:          0 MISS:          0 MSHR_MERGE:          0
cpu0->cpu0_L1I PREFETCH     ACCESS:          0 HIT:          0 MISS:          0 MSHR_MERGE:          0
cpu0->cpu0_L1I WRITE        ACCESS:          0 HIT:          0 MISS:          0 MSHR_MERGE:          0
cpu0->cpu0_L1I TRANSLATION  ACCESS:          0 HIT:          0 MISS:          0 MSHR_MERGE:          0
cpu0->cpu0_L1I PREFETCH REQUESTED:          0 ISSUED:          0 USEFUL:          0 USELESS:          0
cpu0->cpu0_L1I AVERAGE MISS LATENCY: 27.29 cycles
cpu0->cpu0_L1D TOTAL        ACCESS:   18759312 HIT:   17022373 MISS:    1736939 MSHR_MERGE:     389078
cpu0->cpu0_L1D LOAD         ACCESS:    9418617 HIT:    8316399 MISS:    1102218 MSHR_MERGE:     186906
cpu0->cpu0_L1D RFO          ACCESS:          0 HIT:          0 MISS:          0 MSHR_MERGE:          0
cpu0->cpu0_L1D PREFETCH     ACCESS:          0 HIT:          0 MISS:          0 MSHR_MERGE:          0
cpu0->cpu0_L1D WRITE        ACCESS:    9039427 HIT:    8698388 MISS:     341039 MSHR_MERGE:     201830
cpu0->cpu0_L1D TRANSLATION  ACCESS:     301268 HIT:       7586 MISS:     293682 MSHR_MERGE:        342
cpu0->cpu0_L1D PREFETCH REQUESTED:          0 ISSUED:          0 USEFUL:          0 USELESS:          0
cpu0->cpu0_L1D AVERAGE MISS LATENCY: 104 cycles
cpu0->cpu0_ITLB TOTAL        ACCESS:    7223721 HIT:    7223518 MISS:        203 MSHR_MERGE:         99
cpu0->cpu0_ITLB LOAD         ACCESS:    7223721 HIT:    7223518 MISS:        203 MSHR_MERGE:         99
cpu0->cpu0_ITLB RFO          ACCESS:          0 HIT:          0 MISS:          0 MSHR_MERGE:          0
cpu0->cpu0_ITLB PREFETCH     ACCESS:          0 HIT:          0 MISS:          0 MSHR_MERGE:          0
cpu0->cpu0_ITLB WRITE        ACCESS:          0 HIT:          0 MISS:          0 MSHR_MERGE:          0
cpu0->cpu0_ITLB TRANSLATION  ACCESS:          0 HIT:          0 MISS:          0 MSHR_MERGE:          0
cpu0->cpu0_ITLB PREFETCH REQUESTED:          0 ISSUED:          0 USEFUL:          0 USELESS:          0
cpu0->cpu0_ITLB AVERAGE MISS LATENCY: 190.5 cycles
cpu0->cpu0_DTLB TOTAL        ACCESS:   17188010 HIT:   16242222 MISS:     945788 MSHR_MERGE:     118013
cpu0->cpu0_DTLB LOAD         ACCESS:   17188010 HIT:   16242222 MISS:     945788 MSHR_MERGE:     118013
cpu0->cpu0_DTLB RFO          ACCESS:          0 HIT:          0 MISS:          0 MSHR_MERGE:          0
cpu0->cpu0_DTLB PREFETCH     ACCESS:          0 HIT:          0 MISS:          0 MSHR_MERGE:          0
cpu0->cpu0_DTLB WRITE        ACCESS:          0 HIT:          0 MISS:          0 MSHR_MERGE:          0
cpu0->cpu0_DTLB TRANSLATION  ACCESS:          0 HIT:          0 MISS:          0 MSHR_MERGE:          0
cpu0->cpu0_DTLB PREFETCH REQUESTED:          0 ISSUED:          0 USEFUL:          0 USELESS:          0
cpu0->cpu0_DTLB AVERAGE MISS LATENCY: 62.18 cycles
cpu0->LLC TOTAL        ACCESS:    2042087 HIT:     472004 MISS:    1570083 MSHR_MERGE:          0
cpu0->LLC LOAD         ACCESS:     555719 HIT:     136966 MISS:     418753 MSHR_MERGE:          0
cpu0->LLC RFO          ACCESS:      78611 HIT:      19159 MISS:      59452 MSHR_MERGE:          0
cpu0->LLC PREFETCH     ACCESS:     730785 HIT:     115408 MISS:     615377 MSHR_MERGE:          0
cpu0->LLC WRITE        ACCESS:     401080 HIT:     158303 MISS:     242777 MSHR_MERGE:          0
cpu0->LLC TRANSLATION  ACCESS:     275892 HIT:      42168 MISS:     233724 MSHR_MERGE:          0
cpu0->LLC PREFETCH REQUESTED:          0 ISSUED:          0 USEFUL:          0 USELESS:          0
cpu0->LLC AVERAGE MISS LATENCY: 118.3 cycles

DRAM Statistics

Channel 0 RQ ROW_BUFFER_HIT:      23934
  ROW_BUFFER_MISS:    1303268
  AVG DBUS CONGESTED CYCLE: 19.89
Channel 0 WQ ROW_BUFFER_HIT:      75676
  ROW_BUFFER_MISS:     199441
  FULL:          0
Channel 0 REFRESHES ISSUED:      11642
