[VMEM] WARNING: physical memory size is smaller than virtual memory size.
WARNING: option --warmup_instructions is deprecated. Use --warmup-instructions instead.
WARNING: option --simulation_instructions is deprecated. Use --simulation-instructions instead.

*** ChampSim Multicore Out-of-Order Simulator ***
Warmup Instructions: 20000000
Simulation Instructions: 50000000
Number of CPUs: 1
Page size: 4096

Off-chip DRAM Size: 16 GiB Channels: 1 Width: 64-bit Data Rate: 3205 MT/s
Heartbeat CPU 0 instructions: 10000001 cycles: 5055409 heartbeat IPC: 1.978 cumulative IPC: 1.978 (Simulation time: 00 hr 00 min 49 sec)
Heartbeat CPU 0 instructions: 20000002 cycles: 10041835 heartbeat IPC: 2.005 cumulative IPC: 1.992 (Simulation time: 00 hr 01 min 39 sec)
Warmup finished CPU 0 instructions: 20000002 cycles: 10041835 cumulative IPC: 1.992 (Simulation time: 00 hr 01 min 39 sec)
Warmup complete CPU 0 instructions: 20000002 cycles: 10041835 cumulative IPC: 1.992 (Simulation time: 00 hr 01 min 39 sec)
Heartbeat CPU 0 instructions: 30000005 cycles: 40679069 heartbeat IPC: 0.3264 cumulative IPC: 0.3264 (Simulation time: 00 hr 03 min 46 sec)
Heartbeat CPU 0 instructions: 40000005 cycles: 71017184 heartbeat IPC: 0.3296 cumulative IPC: 0.328 (Simulation time: 00 hr 05 min 52 sec)
Heartbeat CPU 0 instructions: 50000007 cycles: 101733432 heartbeat IPC: 0.3256 cumulative IPC: 0.3272 (Simulation time: 00 hr 07 min 57 sec)
Heartbeat CPU 0 instructions: 60000007 cycles: 132047007 heartbeat IPC: 0.3299 cumulative IPC: 0.3279 (Simulation time: 00 hr 10 min 04 sec)
Simulation finished CPU 0 instructions: 50000002 cycles: 152765699 cumulative IPC: 0.3273 (Simulation time: 00 hr 12 min 11 sec)
Simulation complete CPU 0 instructions: 50000002 cycles: 152765699 cumulative IPC: 0.3273 (Simulation time: 00 hr 12 min 11 sec)

ChampSim completed all CPUs

=== Simulation ===
CPU 0 runs traces/605.mcf_s-1152B.champsimtrace.xz

Region of Interest Statistics

CPU 0 cumulative IPC: 0.3273 instructions: 50000002 cycles: 152765699
CPU 0 Branch Prediction Accuracy: 90.19% MPKI: 24.48 Average ROB Occupancy at Mispredict: 21.55
Branch type MPKI
BRANCH_DIRECT_JUMP: 0.2057
BRANCH_INDIRECT: 0
BRANCH_CONDITIONAL: 24.27
BRANCH_DIRECT_CALL: 0
BRANCH_INDIRECT_CALL: 0.0036
BRANCH_RETURN: 2e-05

cpu0->cpu0_STLB TOTAL        ACCESS:    1300751 HIT:    1289212 MISS:      11539 MSHR_MERGE:          0
cpu0->cpu0_STLB LOAD         ACCESS:    1300751 HIT:    1289212 MISS:      11539 MSHR_MERGE:          0
cpu0->cpu0_STLB RFO          ACCESS:          0 HIT:          0 MISS:          0 MSHR_MERGE:          0
cpu0->cpu0_STLB PREFETCH     ACCESS:          0 HIT:          0 MISS:          0 MSHR_MERGE:          0
cpu0->cpu0_STLB WRITE        ACCESS:          0 HIT:          0 MISS:          0 MSHR_MERGE:          0
cpu0->cpu0_STLB TRANSLATION  ACCESS:          0 HIT:          0 MISS:          0 MSHR_MERGE:          0
cpu0->cpu0_STLB PREFETCH REQUESTED:          0 ISSUED:          0 USEFUL:          0 USELESS:          0
cpu0->cpu0_STLB AVERAGE MISS LATENCY: 609.4 cycles
cpu0->cpu0_L2C TOTAL        ACCESS:    5491504 HIT:    1661350 MISS:    3830154 MSHR_MERGE:     201334
cpu0->cpu0_L2C LOAD         ACCESS:    2552757 HIT:     980348 MISS:    1572409 MSHR_MERGE:     145193
cpu0->cpu0_L2C RFO          ACCESS:     187400 HIT:      36922 MISS:     150478 MSHR_MERGE:          0
cpu0->cpu0_L2C PREFETCH     ACCESS:    2471999 HIT:     378738 MISS:    2093261 MSHR_MERGE:      56141
cpu0->cpu0_L2C WRITE        ACCESS:     265756 HIT:     265238 MISS:        518 MSHR_MERGE:          0
cpu0->cpu0_L2C TRANSLATION  ACCESS:      13592 HIT:        104 MISS:      13488 MSHR_MERGE:          0
cpu0->cpu0_L2C PREFETCH REQUESTED:    2472000 ISSUED:    2472000 USEFUL:     768700 USELESS:    1268438
cpu0->cpu0_L2C AVERAGE MISS LATENCY: 57.47 cycles
cpu0->cpu0_L1I TOTAL        ACCESS:     437298 HIT:     437298 MISS:          0 MSHR_MERGE:          0
cpu0->cpu0_L1I LOAD         ACCESS:     437298 HIT:     437298 MISS:          0 MSHR_MERGE:          0
cpu0->cpu0_L1I RFO          ACCESS:          0 HIT:          0 MISS:          0 MSHR_MERGE:          0
cpu0->cpu0_L1I PREFETCH     ACCESS:          0 HIT:          0 MISS:          0 MSHR_MERGE:          0
cpu0->cpu0_L1I WRITE        ACCESS:          0 HIT:          0 MISS:          0 MSHR_MERGE:          0
cpu0->cpu0_L1I TRANSLATION  ACCESS:          0 HIT:          0 MISS:          0 MSHR_MERGE:          0
cpu0->cpu0_L1I PREFETCH REQUESTED:          0 ISSUED:          0 USEFUL:          0 USELESS:          0
cpu0->cpu0_L1I AVERAGE MISS LATENCY: - cycles
cpu0->cpu0_L1D TOTAL        ACCESS:   17882267 HIT:   14282950 MISS:    3599317 MSHR_MERGE:     845565
cpu0->cpu0_L1D LOAD         ACCESS:   12695814 HIT:    9610496 MISS:    3085318 MSHR_MERGE:     532560
cpu0->cpu0_L1D RFO          ACCESS:          0 HIT:          0 MISS:          0 MSHR_MERGE:          0
cpu0->cpu0_L1D PREFETCH     ACCESS:          0 HIT:          0 MISS:          0 MSHR_MERGE:          0
cpu0->cpu0_L1D WRITE        ACCESS:    5163252 HIT:    4662845 MISS:     500407 MSHR_MERGE:     313005
cpu0->cpu0_L1D TRANSLATION  ACCESS:      23201 HIT:       9609 MISS:      13592 MSHR_MERGE:          0
cpu0->cpu0_L1D PREFETCH REQUESTED:          0 ISSUED:          0 USEFUL:          0 USELESS:          0
cpu0->cpu0_L1D AVERAGE MISS LATENCY: 44.88 cycles
cpu0->cpu0_ITLB TOTAL        ACCESS:     406546 HIT:     406546 MISS:          0 MSHR_MERGE:          0
cpu0->cpu0_ITLB LOAD         ACCESS:     406546 HIT:     406546 MISS:          0 MSHR_MERGE:          0
cpu0->cpu0_ITLB RFO          ACCESS:          0 HIT:          0 MISS:          0 MSHR_MERGE:          0
cpu0->cpu0_ITLB PREFETCH     ACCESS:          0 HIT:          0 MISS:          0 MSHR_MERGE:          0
cpu0->cpu0_ITLB WRITE        ACCESS:          0 HIT:          0 MISS:          0 MSHR_MERGE:          0
cpu0->cpu0_ITLB TRANSLATION  ACCESS:          0 HIT:          0 MISS:          0 MSHR_MERGE:          0
cpu0->cpu0_ITLB PREFETCH REQUESTED:          0 ISSUED:          0 USEFUL:          0 USELESS:          0
cpu0->cpu0_ITLB AVERAGE MISS LATENCY: - cycles
cpu0->cpu0_DTLB TOTAL        ACCESS:   16833492 HIT:   15284180 MISS:    1549312 MSHR_MERGE:     248561
cpu0->cpu0_DTLB LOAD         ACCESS:   16833492 HIT:   15284180 MISS:    1549312 MSHR_MERGE:     248561
cpu0->cpu0_DTLB RFO          ACCESS:          0 HIT:          0 MISS:          0 MSHR_MERGE:          0
cpu0->cpu0_DTLB PREFETCH     ACCESS:          0 HIT:          0 MISS:          0 MSHR_MERGE:          0
cpu0->cpu0_DTLB WRITE        ACCESS:          0 HIT:          0 MISS:          0 MSHR_MERGE:          0
cpu0->cpu0_DTLB TRANSLATION  ACCESS:          0 HIT:          0 MISS:          0 MSHR_MERGE:          0
cpu0->cpu0_DTLB PREFETCH REQUESTED:          0 ISSUED:          0 USEFUL:          0 USELESS:          0
cpu0->cpu0_DTLB AVERAGE MISS LATENCY: 9.415 cycles
cpu0->LLC TOTAL        ACCESS:    3841173 HIT:    2334224 MISS:    1506949 MSHR_MERGE:          0
cpu0->LLC LOAD         ACCESS:    1427215 HIT:    1035242 MISS:     391973 MSHR_MERGE:          0
cpu0->LLC RFO          ACCESS:     150478 HIT:     144000 MISS:       6478 MSHR_MERGE:          0
cpu0->LLC PREFETCH     ACCESS:    2037120 HIT:     951423 MISS:    1085697 MSHR_MERGE:          0
cpu0->LLC WRITE        ACCESS:     212872 HIT:     203527 MISS:       9345 MSHR_MERGE:          0
cpu0->LLC TRANSLATION  ACCESS:      13488 HIT:         32 MISS:      13456 MSHR_MERGE:          0
cpu0->LLC PREFETCH REQUESTED:          0 ISSUED:          0 USEFUL:          0 USELESS:          0
cpu0->LLC AVERAGE MISS LATENCY: 143.2 cycles

DRAM Statistics

Channel 0 RQ ROW_BUFFER_HIT:     112627
  ROW_BUFFER_MISS:    1384944
  AVG DBUS CONGESTED CYCLE: 20.91
Channel 0 WQ ROW_BUFFER_HIT:       3347
  ROW_BUFFER_MISS:      11314
  FULL:          0
Channel 0 REFRESHES ISSUED:      12731
