[VMEM] WARNING: physical memory size is smaller than virtual memory size.
WARNING: option --warmup_instructions is deprecated. Use --warmup-instructions instead.
WARNING: option --simulation_instructions is deprecated. Use --simulation-instructions instead.

*** ChampSim Multicore Out-of-Order Simulator ***
Warmup Instructions: 20000000
Simulation Instructions: 50000000
Number of CPUs: 1
Page size: 8192

Off-chip DRAM Size: 16 GiB Channels: 1 Width: 64-bit Data Rate: 3205 MT/s
Heartbeat CPU 0 instructions: 10000002 cycles: 6840554 heartbeat IPC: 1.462 cumulative IPC: 1.462 (Simulation time: 00 hr 01 min 05 sec)
Heartbeat CPU 0 instructions: 20000005 cycles: 10784398 heartbeat IPC: 2.536 cumulative IPC: 1.855 (Simulation time: 00 hr 01 min 53 sec)
Warmup finished CPU 0 instructions: 20000005 cycles: 10784398 cumulative IPC: 1.855 (Simulation time: 00 hr 01 min 53 sec)
Warmup complete CPU 0 instructions: 20000005 cycles: 10784398 cumulative IPC: 1.855 (Simulation time: 00 hr 01 min 53 sec)
Heartbeat CPU 0 instructions: 30000005 cycles: 57984043 heartbeat IPC: 0.2119 cumulative IPC: 0.2119 (Simulation time: 00 hr 05 min 26 sec)
Heartbeat CPU 0 instructions: 40000009 cycles: 105945218 heartbeat IPC: 0.2085 cumulative IPC: 0.2102 (Simulation time: 00 hr 09 min 16 sec)
Heartbeat CPU 0 instructions: 50000009 cycles: 154043645 heartbeat IPC: 0.2079 cumulative IPC: 0.2094 (Simulation time: 00 hr 13 min 13 sec)
Heartbeat CPU 0 instructions: 60000011 cycles: 201525732 heartbeat IPC: 0.2106 cumulative IPC: 0.2097 (Simulation time: 00 hr 17 min 05 sec)
Simulation finished CPU 0 instructions: 50000004 cycles: 239591983 cumulative IPC: 0.2087 (Simulation time: 00 hr 21 min 17 sec)
Simulation complete CPU 0 instructions: 50000004 cycles: 239591983 cumulative IPC: 0.2087 (Simulation time: 00 hr 21 min 17 sec)

ChampSim completed all CPUs

=== Simulation ===
CPU 0 runs traces/473.astar-359B.champsimtrace.xz

Region of Interest Statistics

CPU 0 cumulative IPC: 0.2087 instructions: 50000004 cycles: 239591983
CPU 0 Branch Prediction Accuracy: 93.2% MPKI: 13.43 Average ROB Occupancy at Mispredict: 45.85
Branch type MPKI
BRANCH_DIRECT_JUMP: 0
BRANCH_INDIRECT: 0
BRANCH_CONDITIONAL: 13.42
BRANCH_DIRECT_CALL: 0
BRANCH_INDIRECT_CALL: 0.00054
BRANCH_RETURN: 0

cpu0->cpu0_STLB TOTAL        ACCESS:    1275585 HIT:     889319 MISS:     386266 MSHR_MERGE:          0
cpu0->cpu0_STLB LOAD         ACCESS:    1275585 HIT:     889319 MISS:     386266 MSHR_MERGE:          0
cpu0->cpu0_STLB RFO          ACCESS:          0 HIT:          0 MISS:          0 MSHR_MERGE:          0
cpu0->cpu0_STLB PREFETCH     ACCESS:          0 HIT:          0 MISS:          0 MSHR_MERGE:          0
cpu0->cpu0_STLB WRITE        ACCESS:          0 HIT:          0 MISS:          0 MSHR_MERGE:          0
cpu0->cpu0_STLB TRANSLATION  ACCESS:          0 HIT:          0 MISS:          0 MSHR_MERGE:          0
cpu0->cpu0_STLB PREFETCH REQUESTED:          0 ISSUED:          0 USEFUL:          0 USELESS:          0
cpu0->cpu0_STLB AVERAGE MISS LATENCY: 578 cycles
cpu0->cpu0_L2C TOTAL        ACCESS:    6334948 HIT:    2889876 MISS:    3445072 MSHR_MERGE:      86104
cpu0->cpu0_L2C LOAD         ACCESS:    1775436 HIT:     932353 MISS:     843083 MSHR_MERGE:      17785
cpu0->cpu0_L2C RFO          ACCESS:     767632 HIT:      43147 MISS:     724485 MSHR_MERGE:          0
cpu0->cpu0_L2C PREFETCH     ACCESS:    1972975 HIT:     740274 MISS:    1232701 MSHR_MERGE:      68319
cpu0->cpu0_L2C WRITE        ACCESS:    1168862 HIT:    1168427 MISS:        435 MSHR_MERGE:          0
cpu0->cpu0_L2C TRANSLATION  ACCESS:     650043 HIT:       5675 MISS:     644368 MSHR_MERGE:          0
cpu0->cpu0_L2C PREFETCH REQUESTED:    1975102 ISSUED:    1972975 USEFUL:     307238 USELESS:     719586
cpu0->cpu0_L2C AVERAGE MISS LATENCY: 242.2 cycles
cpu0->cpu0_L1I TOTAL        ACCESS:     781969 HIT:     781962 MISS:          7 MSHR_MERGE:          0
cpu0->cpu0_L1I LOAD         ACCESS:     781969 HIT:     781962 MISS:          7 MSHR_MERGE:          0
cpu0->cpu0_L1I RFO          ACCESS:          0 HIT:          0 MISS:          0 MSHR_MERGE:          0
cpu0->cpu0_L1I PREFETCH     ACCESS:          0 HIT:          0 MISS:          0 MSHR_MERGE:          0
cpu0->cpu0_L1I WRITE        ACCESS:          0 HIT:          0 MISS:          0 MSHR_MERGE:          0
cpu0->cpu0_L1I TRANSLATION  ACCESS:          0 HIT:          0 MISS:          0 MSHR_MERGE:          0
cpu0->cpu0_L1I PREFETCH REQUESTED:          0 ISSUED:          0 USEFUL:          0 USELESS:          0
cpu0->cpu0_L1I AVERAGE MISS LATENCY: 180.4 cycles
cpu0->cpu0_L1D TOTAL        ACCESS:   19879346 HIT:   16090524 MISS:    3788822 MSHR_MERGE:     595714
cpu0->cpu0_L1D LOAD         ACCESS:   12798780 HIT:   10523218 MISS:    2275562 MSHR_MERGE:     500131
cpu0->cpu0_L1D RFO          ACCESS:          0 HIT:          0 MISS:          0 MSHR_MERGE:          0
cpu0->cpu0_L1D PREFETCH     ACCESS:          0 HIT:          0 MISS:          0 MSHR_MERGE:          0
cpu0->cpu0_L1D WRITE        ACCESS:    6303175 HIT:    5535433 MISS:     767742 MSHR_MERGE:        109
cpu0->cpu0_L1D TRANSLATION  ACCESS:     777391 HIT:      31873 MISS:     745518 MSHR_MERGE:      95474
cpu0->cpu0_L1D PREFETCH REQUESTED:          0 ISSUED:          0 USEFUL:          0 USELESS:          0
cpu0->cpu0_L1D AVERAGE MISS LATENCY: 177.1 cycles
cpu0->cpu0_ITLB TOTAL        ACCESS:     779441 HIT:     779441 MISS:          0 MSHR_MERGE:          0
cpu0->cpu0_ITLB LOAD         ACCESS:     779441 HIT:     779441 MISS:          0 MSHR_MERGE:          0
cpu0->cpu0_ITLB RFO          ACCESS:          0 HIT:          0 MISS:          0 MSHR_MERGE:          0
cpu0->cpu0_ITLB PREFETCH     ACCESS:          0 HIT:          0 MISS:          0 MSHR_MERGE:          0
cpu0->cpu0_ITLB WRITE        ACCESS:          0 HIT:          0 MISS:          0 MSHR_MERGE:          0
cpu0->cpu0_ITLB TRANSLATION  ACCESS:          0 HIT:          0 MISS:          0 MSHR_MERGE:          0
cpu0->cpu0_ITLB PREFETCH REQUESTED:          0 ISSUED:          0 USEFUL:          0 USELESS:          0
cpu0->cpu0_ITLB AVERAGE MISS LATENCY: - cycles
cpu0->cpu0_DTLB TOTAL        ACCESS:   18520630 HIT:   16667020 MISS:    1853610 MSHR_MERGE:     578025
cpu0->cpu0_DTLB LOAD         ACCESS:   18520630 HIT:   16667020 MISS:    1853610 MSHR_MERGE:     578025
cpu0->cpu0_DTLB RFO          ACCESS:          0 HIT:          0 MISS:          0 MSHR_MERGE:          0
cpu0->cpu0_DTLB PREFETCH     ACCESS:          0 HIT:          0 MISS:          0 MSHR_MERGE:          0
cpu0->cpu0_DTLB WRITE        ACCESS:          0 HIT:          0 MISS:          0 MSHR_MERGE:          0
cpu0->cpu0_DTLB TRANSLATION  ACCESS:          0 HIT:          0 MISS:          0 MSHR_MERGE:          0
cpu0->cpu0_DTLB PREFETCH REQUESTED:          0 ISSUED:          0 USEFUL:          0 USELESS:          0
cpu0->cpu0_DTLB AVERAGE MISS LATENCY: 179.3 cycles
cpu0->LLC TOTAL        ACCESS:    4484840 HIT:    1106536 MISS:    3378304 MSHR_MERGE:      23693
cpu0->LLC LOAD         ACCESS:     825297 HIT:     257313 MISS:     567984 MSHR_MERGE:       1855
cpu0->LLC RFO          ACCESS:     724484 HIT:     204366 MISS:     520118 MSHR_MERGE:          0
cpu0->LLC PREFETCH     ACCESS:    1164382 HIT:     191399 MISS:     972983 MSHR_MERGE:      21838
cpu0->LLC WRITE        ACCESS:    1126309 HIT:     389277 MISS:     737032 MSHR_MERGE:          0
cpu0->LLC TRANSLATION  ACCESS:     644368 HIT:      64181 MISS:     580187 MSHR_MERGE:          0
cpu0->LLC PREFETCH REQUESTED:          0 ISSUED:          0 USEFUL:          0 USELESS:          0
cpu0->LLC AVERAGE MISS LATENCY: 209.3 cycles

DRAM Statistics

Channel 0 RQ ROW_BUFFER_HIT:      68798
  ROW_BUFFER_MISS:    2546255
  AVG DBUS CONGESTED CYCLE: 19.06
Channel 0 WQ ROW_BUFFER_HIT:     135522
  ROW_BUFFER_MISS:     657736
  FULL:          0
Channel 0 REFRESHES ISSUED:      19966
