[VMEM] WARNING: physical memory size is smaller than virtual memory size.
WARNING: option --warmup_instructions is deprecated. Use --warmup-instructions instead.
WARNING: option --simulation_instructions is deprecated. Use --simulation-instructions instead.

*** ChampSim Multicore Out-of-Order Simulator ***
Warmup Instructions: 20000000
Simulation Instructions: 50000000
Number of CPUs: 1
Page size: 8192

Off-chip DRAM Size: 16 GiB Channels: 1 Width: 64-bit Data Rate: 3205 MT/s
Heartbeat CPU 0 instructions: 10000001 cycles: 5000525 heartbeat IPC: 2 cumulative IPC: 2 (Simulation time: 00 hr 00 min 51 sec)
Heartbeat CPU 0 instructions: 20000002 cycles: 9950411 heartbeat IPC: 2.02 cumulative IPC: 2.01 (Simulation time: 00 hr 01 min 42 sec)
Warmup finished CPU 0 instructions: 20000002 cycles: 9950411 cumulative IPC: 2.01 (Simulation time: 00 hr 01 min 42 sec)
Warmup complete CPU 0 instructions: 20000002 cycles: 9950411 cumulative IPC: 2.01 (Simulation time: 00 hr 01 min 42 sec)
Heartbeat CPU 0 instructions: 30000005 cycles: 46637509 heartbeat IPC: 0.2726 cumulative IPC: 0.2726 (Simulation time: 00 hr 04 min 09 sec)
Heartbeat CPU 0 instructions: 40000005 cycles: 83350734 heartbeat IPC: 0.2724 cumulative IPC: 0.2725 (Simulation time: 00 hr 06 min 34 sec)
Heartbeat CPU 0 instructions: 50000007 cycles: 120771143 heartbeat IPC: 0.2672 cumulative IPC: 0.2707 (Simulation time: 00 hr 09 min 01 sec)
Heartbeat CPU 0 instructions: 60000008 cycles: 158124703 heartbeat IPC: 0.2677 cumulative IPC: 0.27 (Simulation time: 00 hr 11 min 28 sec)
Simulation finished CPU 0 instructions: 50000001 cycles: 186179843 cumulative IPC: 0.2686 (Simulation time: 00 hr 13 min 57 sec)
Simulation complete CPU 0 instructions: 50000001 cycles: 186179843 cumulative IPC: 0.2686 (Simulation time: 00 hr 13 min 57 sec)

ChampSim completed all CPUs

=== Simulation ===
CPU 0 runs traces/605.mcf_s-1152B.champsimtrace.xz

Region of Interest Statistics

CPU 0 cumulative IPC: 0.2686 instructions: 50000001 cycles: 186179843
CPU 0 Branch Prediction Accuracy: 90.19% MPKI: 24.48 Average ROB Occupancy at Mispredict: 22.07
Branch type MPKI
BRANCH_DIRECT_JUMP: 0.2057
BRANCH_INDIRECT: 0
BRANCH_CONDITIONAL: 24.27
BRANCH_DIRECT_CALL: 0
BRANCH_INDIRECT_CALL: 0.0036
BRANCH_RETURN: 2e-05

cpu0->cpu0_STLB TOTAL        ACCESS:    1006306 HIT:    1000549 MISS:       5757 MSHR_MERGE:          0
cpu0->cpu0_STLB LOAD         ACCESS:    1006306 HIT:    1000549 MISS:       5757 MSHR_MERGE:          0
cpu0->cpu0_STLB RFO          ACCESS:          0 HIT:          0 MISS:          0 MSHR_MERGE:          0
cpu0->cpu0_STLB PREFETCH     ACCESS:          0 HIT:          0 MISS:          0 MSHR_MERGE:          0
cpu0->cpu0_STLB WRITE        ACCESS:          0 HIT:          0 MISS:          0 MSHR_MERGE:          0
cpu0->cpu0_STLB TRANSLATION  ACCESS:          0 HIT:          0 MISS:          0 MSHR_MERGE:          0
cpu0->cpu0_STLB PREFETCH REQUESTED:          0 ISSUED:          0 USEFUL:          0 USELESS:          0
cpu0->cpu0_STLB AVERAGE MISS LATENCY: 637.5 cycles
cpu0->cpu0_L2C TOTAL        ACCESS:    7072420 HIT:    2085907 MISS:    4986513 MSHR_MERGE:     356088
cpu0->cpu0_L2C LOAD         ACCESS:    3209049 HIT:    1194996 MISS:    2014053 MSHR_MERGE:     227044
cpu0->cpu0_L2C RFO          ACCESS:     281141 HIT:      52329 MISS:     228812 MSHR_MERGE:          4
cpu0->cpu0_L2C PREFETCH     ACCESS:    3162511 HIT:     427292 MISS:    2735219 MSHR_MERGE:     129040
cpu0->cpu0_L2C WRITE        ACCESS:     409980 HIT:     409130 MISS:        850 MSHR_MERGE:          0
cpu0->cpu0_L2C TRANSLATION  ACCESS:       9739 HIT:       2160 MISS:       7579 MSHR_MERGE:          0
cpu0->cpu0_L2C PREFETCH REQUESTED:    3162511 ISSUED:    3162511 USEFUL:     957520 USELESS:    1648848
cpu0->cpu0_L2C AVERAGE MISS LATENCY: 75.93 cycles
cpu0->cpu0_L1I TOTAL        ACCESS:     485869 HIT:     485869 MISS:          0 MSHR_MERGE:          0
cpu0->cpu0_L1I LOAD         ACCESS:     485869 HIT:     485869 MISS:          0 MSHR_MERGE:          0
cpu0->cpu0_L1I RFO          ACCESS:          0 HIT:          0 MISS:          0 MSHR_MERGE:          0
cpu0->cpu0_L1I PREFETCH     ACCESS:          0 HIT:          0 MISS:          0 MSHR_MERGE:          0
cpu0->cpu0_L1I WRITE        ACCESS:          0 HIT:          0 MISS:          0 MSHR_MERGE:          0
cpu0->cpu0_L1I TRANSLATION  ACCESS:          0 HIT:          0 MISS:          0 MSHR_MERGE:          0
cpu0->cpu0_L1I PREFETCH REQUESTED:          0 ISSUED:          0 USEFUL:          0 USELESS:          0
cpu0->cpu0_L1I AVERAGE MISS LATENCY: - cycles
cpu0->cpu0_L1D TOTAL        ACCESS:   18699500 HIT:   14458084 MISS:    4241416 MSHR_MERGE:     741475
cpu0->cpu0_L1D LOAD         ACCESS:   13523114 HIT:    9856442 MISS:    3666672 MSHR_MERGE:     457615
cpu0->cpu0_L1D RFO          ACCESS:          0 HIT:          0 MISS:          0 MSHR_MERGE:          0
cpu0->cpu0_L1D PREFETCH     ACCESS:          0 HIT:          0 MISS:          0 MSHR_MERGE:          0
cpu0->cpu0_L1D WRITE        ACCESS:    5164776 HIT:    4599771 MISS:     565005 MSHR_MERGE:     283860
cpu0->cpu0_L1D TRANSLATION  ACCESS:      11610 HIT:       1871 MISS:       9739 MSHR_MERGE:          0
cpu0->cpu0_L1D PREFETCH REQUESTED:          0 ISSUED:          0 USEFUL:          0 USELESS:          0
cpu0->cpu0_L1D AVERAGE MISS LATENCY: 57.53 cycles
cpu0->cpu0_ITLB TOTAL        ACCESS:     438019 HIT:     438019 MISS:          0 MSHR_MERGE:          0
cpu0->cpu0_ITLB LOAD         ACCESS:     438019 HIT:     438019 MISS:          0 MSHR_MERGE:          0
cpu0->cpu0_ITLB RFO          ACCESS:          0 HIT:          0 MISS:          0 MSHR_MERGE:          0
cpu0->cpu0_ITLB PREFETCH     ACCESS:          0 HIT:          0 MISS:          0 MSHR_MERGE:          0
cpu0->cpu0_ITLB WRITE        ACCESS:          0 HIT:          0 MISS:          0 MSHR_MERGE:          0
cpu0->cpu0_ITLB TRANSLATION  ACCESS:          0 HIT:          0 MISS:          0 MSHR_MERGE:          0
cpu0->cpu0_ITLB PREFETCH REQUESTED:          0 ISSUED:          0 USEFUL:          0 USELESS:          0
cpu0->cpu0_ITLB AVERAGE MISS LATENCY: - cycles
cpu0->cpu0_DTLB TOTAL        ACCESS:   17427885 HIT:   16230203 MISS:    1197682 MSHR_MERGE:     191376
cpu0->cpu0_DTLB LOAD         ACCESS:   17427885 HIT:   16230203 MISS:    1197682 MSHR_MERGE:     191376
cpu0->cpu0_DTLB RFO          ACCESS:          0 HIT:          0 MISS:          0 MSHR_MERGE:          0
cpu0->cpu0_DTLB PREFETCH     ACCESS:          0 HIT:          0 MISS:          0 MSHR_MERGE:          0
cpu0->cpu0_DTLB WRITE        ACCESS:          0 HIT:          0 MISS:          0 MSHR_MERGE:          0
cpu0->cpu0_DTLB TRANSLATION  ACCESS:          0 HIT:          0 MISS:          0 MSHR_MERGE:          0
cpu0->cpu0_DTLB PREFETCH REQUESTED:          0 ISSUED:          0 USEFUL:          0 USELESS:          0
cpu0->cpu0_DTLB AVERAGE MISS LATENCY: 7.653 cycles
cpu0->LLC TOTAL        ACCESS:    4938752 HIT:    2364707 MISS:    2574045 MSHR_MERGE:          0
cpu0->LLC LOAD         ACCESS:    1787008 HIT:     937826 MISS:     849182 MSHR_MERGE:          0
cpu0->LLC RFO          ACCESS:     228808 HIT:     218855 MISS:       9953 MSHR_MERGE:          0
cpu0->LLC PREFETCH     ACCESS:    2606179 HIT:     912827 MISS:    1693352 MSHR_MERGE:          0
cpu0->LLC WRITE        ACCESS:     309178 HIT:     295165 MISS:      14013 MSHR_MERGE:          0
cpu0->LLC TRANSLATION  ACCESS:       7579 HIT:         34 MISS:       7545 MSHR_MERGE:          0
cpu0->LLC PREFETCH REQUESTED:          0 ISSUED:          0 USEFUL:          0 USELESS:          0
cpu0->LLC AVERAGE MISS LATENCY: 137.7 cycles

DRAM Statistics

Channel 0 RQ ROW_BUFFER_HIT:     399175
  ROW_BUFFER_MISS:    2160789
  AVG DBUS CONGESTED CYCLE: 28.85
Channel 0 WQ ROW_BUFFER_HIT:       4539
  ROW_BUFFER_MISS:      15373
  FULL:          0
Channel 0 REFRESHES ISSUED:      15515
