[VMEM] WARNING: physical memory size is smaller than virtual memory size.
WARNING: option --warmup_instructions is deprecated. Use --warmup-instructions instead.
WARNING: option --simulation_instructions is deprecated. Use --simulation-instructions instead.

*** ChampSim Multicore Out-of-Order Simulator ***
Warmup Instructions: 20000000
Simulation Instructions: 50000000
Number of CPUs: 1
Page size: 8192

Off-chip DRAM Size: 16 GiB Channels: 1 Width: 64-bit Data Rate: 3205 MT/s
Heartbeat CPU 0 instructions: 10000003 cycles: 8498098 heartbeat IPC: 1.177 cumulative IPC: 1.177 (Simulation time: 00 hr 01 min 10 sec)
Warmup finished CPU 0 instructions: 20000001 cycles: 15791667 cumulative IPC: 1.266 (Simulation time: 00 hr 02 min 15 sec)
Warmup complete CPU 0 instructions: 20000001 cycles: 15791667 cumulative IPC: 1.266 (Simulation time: 00 hr 02 min 15 sec)
Heartbeat CPU 0 instructions: 20000005 cycles: 15791668 heartbeat IPC: 1.371 cumulative IPC: 4 (Simulation time: 00 hr 02 min 15 sec)
Heartbeat CPU 0 instructions: 30000006 cycles: 46291707 heartbeat IPC: 0.3279 cumulative IPC: 0.3279 (Simulation time: 00 hr 04 min 41 sec)
Heartbeat CPU 0 instructions: 40000008 cycles: 76941374 heartbeat IPC: 0.3263 cumulative IPC: 0.3271 (Simulation time: 00 hr 07 min 09 sec)
Heartbeat CPU 0 instructions: 50000008 cycles: 107657903 heartbeat IPC: 0.3256 cumulative IPC: 0.3266 (Simulation time: 00 hr 09 min 39 sec)
Heartbeat CPU 0 instructions: 60000011 cycles: 137037083 heartbeat IPC: 0.3404 cumulative IPC: 0.3299 (Simulation time: 00 hr 12 min 01 sec)
Simulation finished CPU 0 instructions: 50000000 cycles: 149755732 cumulative IPC: 0.3339 (Simulation time: 00 hr 14 min 23 sec)
Simulation complete CPU 0 instructions: 50000000 cycles: 149755732 cumulative IPC: 0.3339 (Simulation time: 00 hr 14 min 23 sec)

ChampSim completed all CPUs

=== Simulation ===
CPU 0 runs traces/620.omnetpp_s-874B.champsimtrace.xz

Region of Interest Statistics

CPU 0 cumulative IPC: 0.3339 instructions: 50000000 cycles: 149755732
CPU 0 Branch Prediction Accuracy: 96.16% MPKI: 7.99 Average ROB Occupancy at Mispredict: 54.99
Branch type MPKI
BRANCH_DIRECT_JUMP: 0.9384
BRANCH_INDIRECT: 0.1208
BRANCH_CONDITIONAL: 5.805
BRANCH_DIRECT_CALL: 0.00236
BRANCH_INDIRECT_CALL: 0.7298
BRANCH_RETURN: 0.3936

cpu0->cpu0_STLB TOTAL        ACCESS:     828622 HIT:     691527 MISS:     137095 MSHR_MERGE:          0
cpu0->cpu0_STLB LOAD         ACCESS:     828622 HIT:     691527 MISS:     137095 MSHR_MERGE:          0
cpu0->cpu0_STLB RFO          ACCESS:          0 HIT:          0 MISS:          0 MSHR_MERGE:          0
cpu0->cpu0_STLB PREFETCH     ACCESS:          0 HIT:          0 MISS:          0 MSHR_MERGE:          0
cpu0->cpu0_STLB WRITE        ACCESS:          0 HIT:          0 MISS:          0 MSHR_MERGE:          0
cpu0->cpu0_STLB TRANSLATION  ACCESS:          0 HIT:          0 MISS:          0 MSHR_MERGE:          0
cpu0->cpu0_STLB PREFETCH REQUESTED:          0 ISSUED:          0 USEFUL:          0 USELESS:          0
cpu0->cpu0_STLB AVERAGE MISS LATENCY: 344.7 cycles
cpu0->cpu0_L2C TOTAL        ACCESS:    3894457 HIT:    1719662 MISS:    2174795 MSHR_MERGE:     195616
cpu0->cpu0_L2C LOAD         ACCESS:    1353466 HIT:     536707 MISS:     816759 MSHR_MERGE:      34307
cpu0->cpu0_L2C RFO          ACCESS:     246775 HIT:     112862 MISS:     133913 MSHR_MERGE:       2114
cpu0->cpu0_L2C PREFETCH     ACCESS:    1346747 HIT:     410686 MISS:     936061 MSHR_MERGE:     159195
cpu0->cpu0_L2C WRITE        ACCESS:     651213 HIT:     646775 MISS:       4438 MSHR_MERGE:          0
cpu0->cpu0_L2C TRANSLATION  ACCESS:     296256 HIT:      12632 MISS:     283624 MSHR_MERGE:          0
cpu0->cpu0_L2C PREFETCH REQUESTED:    1346747 ISSUED:    1346747 USEFUL:     271675 USELESS:     505043
cpu0->cpu0_L2C AVERAGE MISS LATENCY: 133.7 cycles
cpu0->cpu0_L1I TOTAL        ACCESS:    9220609 HIT:    9085413 MISS:     135196 MSHR_MERGE:      17606
cpu0->cpu0_L1I LOAD         ACCESS:    9220609 HIT:    9085413 MISS:     135196 MSHR_MERGE:      17606
cpu0->cpu0_L1I RFO          ACCESS:          0 HIT:          0 MISS:          0 MSHR_MERGE:          0
cpu0->cpu0_L1I PREFETCH     ACCESS:          0 HIT:          0 MISS:          0 MSHR_MERGE:          0
cpu0->cpu0_L1I WRITE        ACCESS:          0 HIT:          0 MISS:          0 MSHR_MERGE:          0
cpu0->cpu0_L1I TRANSLATION  ACCESS:          0 HIT:          0 MISS:          0 MSHR_MERGE:          0
cpu0->cpu0_L1I PREFETCH REQUESTED:          0 ISSUED:          0 USEFUL:          0 USELESS:          0
cpu0->cpu0_L1I AVERAGE MISS LATENCY: 23.37 cycles
cpu0->cpu0_L1D TOTAL        ACCESS:   19189836 HIT:   16932005 MISS:    2257831 MSHR_MERGE:     478897
cpu0->cpu0_L1D LOAD         ACCESS:    9839137 HIT:    8400243 MISS:    1438894 MSHR_MERGE:     203011
cpu0->cpu0_L1D RFO          ACCESS:          0 HIT:          0 MISS:          0 MSHR_MERGE:          0
cpu0->cpu0_L1D PREFETCH     ACCESS:          0 HIT:          0 MISS:          0 MSHR_MERGE:          0
cpu0->cpu0_L1D WRITE        ACCESS:    9049435 HIT:    8526994 MISS:     522441 MSHR_MERGE:     275646
cpu0->cpu0_L1D TRANSLATION  ACCESS:     301264 HIT:       4768 MISS:     296496 MSHR_MERGE:        240
cpu0->cpu0_L1D PREFETCH REQUESTED:          0 ISSUED:          0 USEFUL:          0 USELESS:          0
cpu0->cpu0_L1D AVERAGE MISS LATENCY: 100.8 cycles
cpu0->cpu0_ITLB TOTAL        ACCESS:    8160633 HIT:    8160392 MISS:        241 MSHR_MERGE:        137
cpu0->cpu0_ITLB LOAD         ACCESS:    8160633 HIT:    8160392 MISS:        241 MSHR_MERGE:        137
cpu0->cpu0_ITLB RFO          ACCESS:          0 HIT:          0 MISS:          0 MSHR_MERGE:          0
cpu0->cpu0_ITLB PREFETCH     ACCESS:          0 HIT:          0 MISS:          0 MSHR_MERGE:          0
cpu0->cpu0_ITLB WRITE        ACCESS:          0 HIT:          0 MISS:          0 MSHR_MERGE:          0
cpu0->cpu0_ITLB TRANSLATION  ACCESS:          0 HIT:          0 MISS:          0 MSHR_MERGE:          0
cpu0->cpu0_ITLB PREFETCH REQUESTED:          0 ISSUED:          0 USEFUL:          0 USELESS:          0
cpu0->cpu0_ITLB AVERAGE MISS LATENCY: 195.1 cycles
cpu0->cpu0_DTLB TOTAL        ACCESS:   17567415 HIT:   16599542 MISS:     967873 MSHR_MERGE:     139354
cpu0->cpu0_DTLB LOAD         ACCESS:   17567415 HIT:   16599542 MISS:     967873 MSHR_MERGE:     139354
cpu0->cpu0_DTLB RFO          ACCESS:          0 HIT:          0 MISS:          0 MSHR_MERGE:          0
cpu0->cpu0_DTLB PREFETCH     ACCESS:          0 HIT:          0 MISS:          0 MSHR_MERGE:          0
cpu0->cpu0_DTLB WRITE        ACCESS:          0 HIT:          0 MISS:          0 MSHR_MERGE:          0
cpu0->cpu0_DTLB TRANSLATION  ACCESS:          0 HIT:          0 MISS:          0 MSHR_MERGE:          0
cpu0->cpu0_DTLB PREFETCH REQUESTED:          0 ISSUED:          0 USEFUL:          0 USELESS:          0
cpu0->cpu0_DTLB AVERAGE MISS LATENCY: 61.18 cycles
cpu0->LLC TOTAL        ACCESS:    2476082 HIT:     581914 MISS:    1894168 MSHR_MERGE:          0
cpu0->LLC LOAD         ACCESS:     782451 HIT:     180857 MISS:     601594 MSHR_MERGE:          0
cpu0->LLC RFO          ACCESS:     131799 HIT:      21079 MISS:     110720 MSHR_MERGE:          0
cpu0->LLC PREFETCH     ACCESS:     776866 HIT:     164779 MISS:     612087 MSHR_MERGE:          0
cpu0->LLC WRITE        ACCESS:     501342 HIT:     166876 MISS:     334466 MSHR_MERGE:          0
cpu0->LLC TRANSLATION  ACCESS:     283624 HIT:      48323 MISS:     235301 MSHR_MERGE:          0
cpu0->LLC PREFETCH REQUESTED:          0 ISSUED:          0 USEFUL:          0 USELESS:          0
cpu0->LLC AVERAGE MISS LATENCY: 112.4 cycles

DRAM Statistics

Channel 0 RQ ROW_BUFFER_HIT:      51434
  ROW_BUFFER_MISS:    1508168
  AVG DBUS CONGESTED CYCLE: 24.12
Channel 0 WQ ROW_BUFFER_HIT:      97497
  ROW_BUFFER_MISS:     283113
  FULL:          0
Channel 0 REFRESHES ISSUED:      12480
