[VMEM] WARNING: physical memory size is smaller than virtual memory size.
WARNING: option --warmup_instructions is deprecated. Use --warmup-instructions instead.
WARNING: option --simulation_instructions is deprecated. Use --simulation-instructions instead.

*** ChampSim Multicore Out-of-Order Simulator ***
Warmup Instructions: 20000000
Simulation Instructions: 50000000
Number of CPUs: 1
Page size: 8192

Off-chip DRAM Size: 16 GiB Channels: 1 Width: 64-bit Data Rate: 3205 MT/s
Heartbeat CPU 0 instructions: 10000000 cycles: 7206004 heartbeat IPC: 1.388 cumulative IPC: 1.388 (Simulation time: 00 hr 01 min 02 sec)
Heartbeat CPU 0 instructions: 20000001 cycles: 11517986 heartbeat IPC: 2.319 cumulative IPC: 1.736 (Simulation time: 00 hr 01 min 51 sec)
Warmup finished CPU 0 instructions: 20000001 cycles: 11517986 cumulative IPC: 1.736 (Simulation time: 00 hr 01 min 51 sec)
Warmup complete CPU 0 instructions: 20000001 cycles: 11517986 cumulative IPC: 1.736 (Simulation time: 00 hr 01 min 51 sec)
Heartbeat CPU 0 instructions: 30000003 cycles: 60155782 heartbeat IPC: 0.2056 cumulative IPC: 0.2056 (Simulation time: 00 hr 05 min 20 sec)
Heartbeat CPU 0 instructions: 40000005 cycles: 109160050 heartbeat IPC: 0.2041 cumulative IPC: 0.2048 (Simulation time: 00 hr 09 min 01 sec)
Heartbeat CPU 0 instructions: 50000006 cycles: 157914978 heartbeat IPC: 0.2051 cumulative IPC: 0.2049 (Simulation time: 00 hr 12 min 39 sec)
Heartbeat CPU 0 instructions: 60000007 cycles: 205559633 heartbeat IPC: 0.2099 cumulative IPC: 0.2061 (Simulation time: 00 hr 16 min 07 sec)
Simulation finished CPU 0 instructions: 50000002 cycles: 243248471 cumulative IPC: 0.2056 (Simulation time: 00 hr 19 min 59 sec)
Simulation complete CPU 0 instructions: 50000002 cycles: 243248471 cumulative IPC: 0.2056 (Simulation time: 00 hr 19 min 59 sec)

ChampSim completed all CPUs

=== Simulation ===
CPU 0 runs traces/473.astar-359B.champsimtrace.xz

Region of Interest Statistics

CPU 0 cumulative IPC: 0.2056 instructions: 50000002 cycles: 243248471
CPU 0 Branch Prediction Accuracy: 93.2% MPKI: 13.43 Average ROB Occupancy at Mispredict: 44.94
Branch type MPKI
BRANCH_DIRECT_JUMP: 0
BRANCH_INDIRECT: 0
BRANCH_CONDITIONAL: 13.42
BRANCH_DIRECT_CALL: 0
BRANCH_INDIRECT_CALL: 0.00054
BRANCH_RETURN: 0

cpu0->cpu0_STLB TOTAL        ACCESS:    1275645 HIT:     889381 MISS:     386264 MSHR_MERGE:          0
cpu0->cpu0_STLB LOAD         ACCESS:    1275645 HIT:     889381 MISS:     386264 MSHR_MERGE:          0
cpu0->cpu0_STLB RFO          ACCESS:          0 HIT:          0 MISS:          0 MSHR_MERGE:          0
cpu0->cpu0_STLB PREFETCH     ACCESS:          0 HIT:          0 MISS:          0 MSHR_MERGE:          0
cpu0->cpu0_STLB WRITE        ACCESS:          0 HIT:          0 MISS:          0 MSHR_MERGE:          0
cpu0->cpu0_STLB TRANSLATION  ACCESS:          0 HIT:          0 MISS:          0 MSHR_MERGE:          0
cpu0->cpu0_STLB PREFETCH REQUESTED:          0 ISSUED:          0 USEFUL:          0 USELESS:          0
cpu0->cpu0_STLB AVERAGE MISS LATENCY: 467.7 cycles
cpu0->cpu0_L2C TOTAL        ACCESS:    7011508 HIT:    3049678 MISS:    3961830 MSHR_MERGE:     223380
cpu0->cpu0_L2C LOAD         ACCESS:    2178403 HIT:    1072726 MISS:    1105677 MSHR_MERGE:      94361
cpu0->cpu0_L2C RFO          ACCESS:     821616 HIT:      86322 MISS:     735294 MSHR_MERGE:          0
cpu0->cpu0_L2C PREFETCH     ACCESS:    2111896 HIT:     661727 MISS:    1450169 MSHR_MERGE:     129019
cpu0->cpu0_L2C WRITE        ACCESS:    1224920 HIT:    1224718 MISS:        202 MSHR_MERGE:          0
cpu0->cpu0_L2C TRANSLATION  ACCESS:     674673 HIT:       4185 MISS:     670488 MSHR_MERGE:          0
cpu0->cpu0_L2C PREFETCH REQUESTED:    2111896 ISSUED:    2111896 USEFUL:     510080 USELESS:     812389
cpu0->cpu0_L2C AVERAGE MISS LATENCY: 188 cycles
cpu0->cpu0_L1I TOTAL        ACCESS:     834697 HIT:     834686 MISS:         11 MSHR_MERGE:          1
cpu0->cpu0_L1I LOAD         ACCESS:     834697 HIT:     834686 MISS:         11 MSHR_MERGE:          1
cpu0->cpu0_L1I RFO          ACCESS:          0 HIT:          0 MISS:          0 MSHR_MERGE:          0
cpu0->cpu0_L1I PREFETCH     ACCESS:          0 HIT:          0 MISS:          0 MSHR_MERGE:          0
cpu0->cpu0_L1I WRITE        ACCESS:          0 HIT:          0 MISS:          0 MSHR_MERGE:          0
cpu0->cpu0_L1I TRANSLATION  ACCESS:          0 HIT:          0 MISS:          0 MSHR_MERGE:          0
cpu0->cpu0_L1I PREFETCH REQUESTED:          0 ISSUED:          0 USEFUL:          0 USELESS:          0
cpu0->cpu0_L1I AVERAGE MISS LATENCY: 134.5 cycles
cpu0->cpu0_L1D TOTAL        ACCESS:   20640057 HIT:   16212681 MISS:    4427376 MSHR_MERGE:     752688
cpu0->cpu0_L1D LOAD         ACCESS:   13548658 HIT:   10702422 MISS:    2846236 MSHR_MERGE:     667841
cpu0->cpu0_L1D RFO          ACCESS:          0 HIT:          0 MISS:          0 MSHR_MERGE:          0
cpu0->cpu0_L1D PREFETCH     ACCESS:          0 HIT:          0 MISS:          0 MSHR_MERGE:          0
cpu0->cpu0_L1D WRITE        ACCESS:    6314841 HIT:    5483031 MISS:     831810 MSHR_MERGE:      10190
cpu0->cpu0_L1D TRANSLATION  ACCESS:     776558 HIT:      27228 MISS:     749330 MSHR_MERGE:      74657
cpu0->cpu0_L1D PREFETCH REQUESTED:          0 ISSUED:          0 USEFUL:          0 USELESS:          0
cpu0->cpu0_L1D AVERAGE MISS LATENCY: 137.9 cycles
cpu0->cpu0_ITLB TOTAL        ACCESS:     832032 HIT:     832032 MISS:          0 MSHR_MERGE:          0
cpu0->cpu0_ITLB LOAD         ACCESS:     832032 HIT:     832032 MISS:          0 MSHR_MERGE:          0
cpu0->cpu0_ITLB RFO          ACCESS:          0 HIT:          0 MISS:          0 MSHR_MERGE:          0
cpu0->cpu0_ITLB PREFETCH     ACCESS:          0 HIT:          0 MISS:          0 MSHR_MERGE:          0
cpu0->cpu0_ITLB WRITE        ACCESS:          0 HIT:          0 MISS:          0 MSHR_MERGE:          0
cpu0->cpu0_ITLB TRANSLATION  ACCESS:          0 HIT:          0 MISS:          0 MSHR_MERGE:          0
cpu0->cpu0_ITLB PREFETCH REQUESTED:          0 ISSUED:          0 USEFUL:          0 USELESS:          0
cpu0->cpu0_ITLB AVERAGE MISS LATENCY: - cycles
cpu0->cpu0_DTLB TOTAL        ACCESS:   18841836 HIT:   16936260 MISS:    1905576 MSHR_MERGE:     629931
cpu0->cpu0_DTLB LOAD         ACCESS:   18841836 HIT:   16936260 MISS:    1905576 MSHR_MERGE:     629931
cpu0->cpu0_DTLB RFO          ACCESS:          0 HIT:          0 MISS:          0 MSHR_MERGE:          0
cpu0->cpu0_DTLB PREFETCH     ACCESS:          0 HIT:          0 MISS:          0 MSHR_MERGE:          0
cpu0->cpu0_DTLB WRITE        ACCESS:          0 HIT:          0 MISS:          0 MSHR_MERGE:          0
cpu0->cpu0_DTLB TRANSLATION  ACCESS:          0 HIT:          0 MISS:          0 MSHR_MERGE:          0
cpu0->cpu0_DTLB PREFETCH REQUESTED:          0 ISSUED:          0 USEFUL:          0 USELESS:          0
cpu0->cpu0_DTLB AVERAGE MISS LATENCY: 145.9 cycles
cpu0->LLC TOTAL        ACCESS:    4880479 HIT:    1126172 MISS:    3754307 MSHR_MERGE:          0
cpu0->LLC LOAD         ACCESS:    1011316 HIT:     272863 MISS:     738453 MSHR_MERGE:          0
cpu0->LLC RFO          ACCESS:     735294 HIT:     251668 MISS:     483626 MSHR_MERGE:          0
cpu0->LLC PREFETCH     ACCESS:    1321150 HIT:      81077 MISS:    1240073 MSHR_MERGE:          0
cpu0->LLC WRITE        ACCESS:    1142231 HIT:     465250 MISS:     676981 MSHR_MERGE:          0
cpu0->LLC TRANSLATION  ACCESS:     670488 HIT:      55314 MISS:     615174 MSHR_MERGE:          0
cpu0->LLC PREFETCH REQUESTED:          0 ISSUED:          0 USEFUL:          0 USELESS:          0
cpu0->LLC AVERAGE MISS LATENCY: 167.1 cycles

DRAM Statistics

Channel 0 RQ ROW_BUFFER_HIT:      62129
  ROW_BUFFER_MISS:    3012077
  AVG DBUS CONGESTED CYCLE: 22.3
Channel 0 WQ ROW_BUFFER_HIT:     132350
  ROW_BUFFER_MISS:     594913
  FULL:         39
Channel 0 REFRESHES ISSUED:      20271
