[VMEM] WARNING: physical memory size is smaller than virtual memory size.
WARNING: option --warmup_instructions is deprecated. Use --warmup-instructions instead.
WARNING: option --simulation_instructions is deprecated. Use --simulation-instructions instead.

*** ChampSim Multicore Out-of-Order Simulator ***
Warmup Instructions: 20000000
Simulation Instructions: 50000000
Number of CPUs: 1
Page size: 8192

Off-chip DRAM Size: 16 GiB Channels: 1 Width: 64-bit Data Rate: 3205 MT/s
Heartbeat CPU 0 instructions: 10000003 cycles: 4568146 heartbeat IPC: 2.189 cumulative IPC: 2.189 (Simulation time: 00 hr 00 min 44 sec)
Warmup finished CPU 0 instructions: 20000000 cycles: 9082330 cumulative IPC: 2.202 (Simulation time: 00 hr 01 min 28 sec)
Warmup complete CPU 0 instructions: 20000000 cycles: 9082330 cumulative IPC: 2.202 (Simulation time: 00 hr 01 min 28 sec)
Heartbeat CPU 0 instructions: 20000006 cycles: 9082331 heartbeat IPC: 2.215 cumulative IPC: 6 (Simulation time: 00 hr 01 min 28 sec)
Heartbeat CPU 0 instructions: 30000009 cycles: 38717503 heartbeat IPC: 0.3374 cumulative IPC: 0.3374 (Simulation time: 00 hr 03 min 24 sec)
Heartbeat CPU 0 instructions: 40000013 cycles: 68259716 heartbeat IPC: 0.3385 cumulative IPC: 0.338 (Simulation time: 00 hr 05 min 18 sec)
Heartbeat CPU 0 instructions: 50000016 cycles: 98118517 heartbeat IPC: 0.3349 cumulative IPC: 0.3369 (Simulation time: 00 hr 07 min 14 sec)
Heartbeat CPU 0 instructions: 60000017 cycles: 127717852 heartbeat IPC: 0.3378 cumulative IPC: 0.3372 (Simulation time: 00 hr 09 min 08 sec)
Simulation finished CPU 0 instructions: 50000004 cycles: 148673754 cumulative IPC: 0.3363 (Simulation time: 00 hr 11 min 04 sec)
Simulation complete CPU 0 instructions: 50000004 cycles: 148673754 cumulative IPC: 0.3363 (Simulation time: 00 hr 11 min 04 sec)

ChampSim completed all CPUs

=== Simulation ===
CPU 0 runs traces/605.mcf_s-1152B.champsimtrace.xz

Region of Interest Statistics

CPU 0 cumulative IPC: 0.3363 instructions: 50000004 cycles: 148673754
CPU 0 Branch Prediction Accuracy: 90.19% MPKI: 24.48 Average ROB Occupancy at Mispredict: 18.91
Branch type MPKI
BRANCH_DIRECT_JUMP: 0.2057
BRANCH_INDIRECT: 0
BRANCH_CONDITIONAL: 24.27
BRANCH_DIRECT_CALL: 0
BRANCH_INDIRECT_CALL: 0.0036
BRANCH_RETURN: 2e-05

cpu0->cpu0_STLB TOTAL        ACCESS:    1005917 HIT:    1000160 MISS:       5757 MSHR_MERGE:          0
cpu0->cpu0_STLB LOAD         ACCESS:    1005917 HIT:    1000160 MISS:       5757 MSHR_MERGE:          0
cpu0->cpu0_STLB RFO          ACCESS:          0 HIT:          0 MISS:          0 MSHR_MERGE:          0
cpu0->cpu0_STLB PREFETCH     ACCESS:          0 HIT:          0 MISS:          0 MSHR_MERGE:          0
cpu0->cpu0_STLB WRITE        ACCESS:          0 HIT:          0 MISS:          0 MSHR_MERGE:          0
cpu0->cpu0_STLB TRANSLATION  ACCESS:          0 HIT:          0 MISS:          0 MSHR_MERGE:          0
cpu0->cpu0_STLB PREFETCH REQUESTED:          0 ISSUED:          0 USEFUL:          0 USELESS:          0
cpu0->cpu0_STLB AVERAGE MISS LATENCY: 630.3 cycles
cpu0->cpu0_L2C TOTAL        ACCESS:    9200536 HIT:    3459625 MISS:    5740911 MSHR_MERGE:     219052
cpu0->cpu0_L2C LOAD         ACCESS:    2552705 HIT:    1083910 MISS:    1468795 MSHR_MERGE:      44013
cpu0->cpu0_L2C RFO          ACCESS:     187419 HIT:      25001 MISS:     162418 MSHR_MERGE:          0
cpu0->cpu0_L2C PREFETCH     ACCESS:    6186269 HIT:    2087485 MISS:    4098784 MSHR_MERGE:     175039
cpu0->cpu0_L2C WRITE        ACCESS:     265794 HIT:     261797 MISS:       3997 MSHR_MERGE:          0
cpu0->cpu0_L2C TRANSLATION  ACCESS:       8349 HIT:       1432 MISS:       6917 MSHR_MERGE:          0
cpu0->cpu0_L2C PREFETCH REQUESTED:    6190378 ISSUED:    6186269 USEFUL:     819863 USELESS:    3103563
cpu0->cpu0_L2C AVERAGE MISS LATENCY: 57.57 cycles
cpu0->cpu0_L1I TOTAL        ACCESS:     418235 HIT:     418235 MISS:          0 MSHR_MERGE:          0
cpu0->cpu0_L1I LOAD         ACCESS:     418235 HIT:     418235 MISS:          0 MSHR_MERGE:          0
cpu0->cpu0_L1I RFO          ACCESS:          0 HIT:          0 MISS:          0 MSHR_MERGE:          0
cpu0->cpu0_L1I PREFETCH     ACCESS:          0 HIT:          0 MISS:          0 MSHR_MERGE:          0
cpu0->cpu0_L1I WRITE        ACCESS:          0 HIT:          0 MISS:          0 MSHR_MERGE:          0
cpu0->cpu0_L1I TRANSLATION  ACCESS:          0 HIT:          0 MISS:          0 MSHR_MERGE:          0
cpu0->cpu0_L1I PREFETCH REQUESTED:          0 ISSUED:          0 USEFUL:          0 USELESS:          0
cpu0->cpu0_L1I AVERAGE MISS LATENCY: - cycles
cpu0->cpu0_L1D TOTAL        ACCESS:   17662846 HIT:   14064464 MISS:    3598382 MSHR_MERGE:     849903
cpu0->cpu0_L1D LOAD         ACCESS:   12505100 HIT:    9420077 MISS:    3085023 MSHR_MERGE:     532317
cpu0->cpu0_L1D RFO          ACCESS:          0 HIT:          0 MISS:          0 MSHR_MERGE:          0
cpu0->cpu0_L1D PREFETCH     ACCESS:          0 HIT:          0 MISS:          0 MSHR_MERGE:          0
cpu0->cpu0_L1D WRITE        ACCESS:    5146136 HIT:    4641126 MISS:     505010 MSHR_MERGE:     317586
cpu0->cpu0_L1D TRANSLATION  ACCESS:      11610 HIT:       3261 MISS:       8349 MSHR_MERGE:          0
cpu0->cpu0_L1D PREFETCH REQUESTED:          0 ISSUED:          0 USEFUL:          0 USELESS:          0
cpu0->cpu0_L1D AVERAGE MISS LATENCY: 43.69 cycles
cpu0->cpu0_ITLB TOTAL        ACCESS:     384631 HIT:     384631 MISS:          0 MSHR_MERGE:          0
cpu0->cpu0_ITLB LOAD         ACCESS:     384631 HIT:     384631 MISS:          0 MSHR_MERGE:          0
cpu0->cpu0_ITLB RFO          ACCESS:          0 HIT:          0 MISS:          0 MSHR_MERGE:          0
cpu0->cpu0_ITLB PREFETCH     ACCESS:          0 HIT:          0 MISS:          0 MSHR_MERGE:          0
cpu0->cpu0_ITLB WRITE        ACCESS:          0 HIT:          0 MISS:          0 MSHR_MERGE:          0
cpu0->cpu0_ITLB TRANSLATION  ACCESS:          0 HIT:          0 MISS:          0 MSHR_MERGE:          0
cpu0->cpu0_ITLB PREFETCH REQUESTED:          0 ISSUED:          0 USEFUL:          0 USELESS:          0
cpu0->cpu0_ITLB AVERAGE MISS LATENCY: - cycles
cpu0->cpu0_DTLB TOTAL        ACCESS:   16461041 HIT:   15270038 MISS:    1191003 MSHR_MERGE:     185086
cpu0->cpu0_DTLB LOAD         ACCESS:   16461041 HIT:   15270038 MISS:    1191003 MSHR_MERGE:     185086
cpu0->cpu0_DTLB RFO          ACCESS:          0 HIT:          0 MISS:          0 MSHR_MERGE:          0
cpu0->cpu0_DTLB PREFETCH     ACCESS:          0 HIT:          0 MISS:          0 MSHR_MERGE:          0
cpu0->cpu0_DTLB WRITE        ACCESS:          0 HIT:          0 MISS:          0 MSHR_MERGE:          0
cpu0->cpu0_DTLB TRANSLATION  ACCESS:          0 HIT:          0 MISS:          0 MSHR_MERGE:          0
cpu0->cpu0_DTLB PREFETCH REQUESTED:          0 ISSUED:          0 USEFUL:          0 USELESS:          0
cpu0->cpu0_DTLB AVERAGE MISS LATENCY: 7.613 cycles
cpu0->LLC TOTAL        ACCESS:    5740310 HIT:    3235807 MISS:    2504503 MSHR_MERGE:          0
cpu0->LLC LOAD         ACCESS:    1424782 HIT:    1023549 MISS:     401233 MSHR_MERGE:          0
cpu0->LLC RFO          ACCESS:     162418 HIT:     151248 MISS:      11170 MSHR_MERGE:          0
cpu0->LLC PREFETCH     ACCESS:    3923744 HIT:    1851231 MISS:    2072513 MSHR_MERGE:          0
cpu0->LLC WRITE        ACCESS:     222449 HIT:     209753 MISS:      12696 MSHR_MERGE:          0
cpu0->LLC TRANSLATION  ACCESS:       6917 HIT:         26 MISS:       6891 MSHR_MERGE:          0
cpu0->LLC PREFETCH REQUESTED:          0 ISSUED:          0 USEFUL:          0 USELESS:          0
cpu0->LLC AVERAGE MISS LATENCY: 151.1 cycles

DRAM Statistics

Channel 0 RQ ROW_BUFFER_HIT:      85974
  ROW_BUFFER_MISS:    2405683
  AVG DBUS CONGESTED CYCLE: 12.28
Channel 0 WQ ROW_BUFFER_HIT:       4600
  ROW_BUFFER_MISS:      15472
  FULL:          0
Channel 0 REFRESHES ISSUED:      12390
