[VMEM] WARNING: physical memory size is smaller than virtual memory size.
WARNING: option --warmup_instructions is deprecated. Use --warmup-instructions instead.
WARNING: option --simulation_instructions is deprecated. Use --simulation-instructions instead.

*** ChampSim Multicore Out-of-Order Simulator ***
Warmup Instructions: 20000000
Simulation Instructions: 50000000
Number of CPUs: 1
Page size: 8192

Off-chip DRAM Size: 16 GiB Channels: 1 Width: 64-bit Data Rate: 3205 MT/s
Heartbeat CPU 0 instructions: 10000000 cycles: 8199855 heartbeat IPC: 1.22 cumulative IPC: 1.22 (Simulation time: 00 hr 01 min 04 sec)
Heartbeat CPU 0 instructions: 20000002 cycles: 15187833 heartbeat IPC: 1.431 cumulative IPC: 1.317 (Simulation time: 00 hr 02 min 02 sec)
Warmup finished CPU 0 instructions: 20000002 cycles: 15187833 cumulative IPC: 1.317 (Simulation time: 00 hr 02 min 02 sec)
Warmup complete CPU 0 instructions: 20000002 cycles: 15187833 cumulative IPC: 1.317 (Simulation time: 00 hr 02 min 02 sec)
Heartbeat CPU 0 instructions: 30000002 cycles: 43657514 heartbeat IPC: 0.3513 cumulative IPC: 0.3513 (Simulation time: 00 hr 04 min 14 sec)
Heartbeat CPU 0 instructions: 40000006 cycles: 72354584 heartbeat IPC: 0.3485 cumulative IPC: 0.3499 (Simulation time: 00 hr 06 min 27 sec)
Heartbeat CPU 0 instructions: 50000006 cycles: 101079009 heartbeat IPC: 0.3481 cumulative IPC: 0.3493 (Simulation time: 00 hr 08 min 42 sec)
Heartbeat CPU 0 instructions: 60000009 cycles: 128277881 heartbeat IPC: 0.3677 cumulative IPC: 0.3537 (Simulation time: 00 hr 10 min 53 sec)
Simulation finished CPU 0 instructions: 50000002 cycles: 139448914 cumulative IPC: 0.3586 (Simulation time: 00 hr 12 min 59 sec)
Simulation complete CPU 0 instructions: 50000002 cycles: 139448914 cumulative IPC: 0.3586 (Simulation time: 00 hr 12 min 59 sec)

ChampSim completed all CPUs

=== Simulation ===
CPU 0 runs traces/620.omnetpp_s-874B.champsimtrace.xz

Region of Interest Statistics

CPU 0 cumulative IPC: 0.3586 instructions: 50000002 cycles: 139448914
CPU 0 Branch Prediction Accuracy: 96.16% MPKI: 7.99 Average ROB Occupancy at Mispredict: 53.33
Branch type MPKI
BRANCH_DIRECT_JUMP: 0.9384
BRANCH_INDIRECT: 0.1208
BRANCH_CONDITIONAL: 5.805
BRANCH_DIRECT_CALL: 0.00236
BRANCH_INDIRECT_CALL: 0.7298
BRANCH_RETURN: 0.3936

cpu0->cpu0_STLB TOTAL        ACCESS:     827789 HIT:     690693 MISS:     137096 MSHR_MERGE:          0
cpu0->cpu0_STLB LOAD         ACCESS:     827789 HIT:     690693 MISS:     137096 MSHR_MERGE:          0
cpu0->cpu0_STLB RFO          ACCESS:          0 HIT:          0 MISS:          0 MSHR_MERGE:          0
cpu0->cpu0_STLB PREFETCH     ACCESS:          0 HIT:          0 MISS:          0 MSHR_MERGE:          0
cpu0->cpu0_STLB WRITE        ACCESS:          0 HIT:          0 MISS:          0 MSHR_MERGE:          0
cpu0->cpu0_STLB TRANSLATION  ACCESS:          0 HIT:          0 MISS:          0 MSHR_MERGE:          0
cpu0->cpu0_STLB PREFETCH REQUESTED:          0 ISSUED:          0 USEFUL:          0 USELESS:          0
cpu0->cpu0_STLB AVERAGE MISS LATENCY: 339.5 cycles
cpu0->cpu0_L2C TOTAL        ACCESS:    3192588 HIT:    1383724 MISS:    1808864 MSHR_MERGE:     128174
cpu0->cpu0_L2C LOAD         ACCESS:     934150 HIT:     358921 MISS:     575229 MSHR_MERGE:      17581
cpu0->cpu0_L2C RFO          ACCESS:     138848 HIT:      57197 MISS:      81651 MSHR_MERGE:       2636
cpu0->cpu0_L2C PREFETCH     ACCESS:    1317893 HIT:     446790 MISS:     871103 MSHR_MERGE:     107957
cpu0->cpu0_L2C WRITE        ACCESS:     508728 HIT:     504295 MISS:       4433 MSHR_MERGE:          0
cpu0->cpu0_L2C TRANSLATION  ACCESS:     292969 HIT:      16521 MISS:     276448 MSHR_MERGE:          0
cpu0->cpu0_L2C PREFETCH REQUESTED:    1317907 ISSUED:    1317893 USEFUL:     171542 USELESS:     592776
cpu0->cpu0_L2C AVERAGE MISS LATENCY: 139 cycles
cpu0->cpu0_L1I TOTAL        ACCESS:    7076055 HIT:    7054625 MISS:      21430 MSHR_MERGE:       2969
cpu0->cpu0_L1I LOAD         ACCESS:    7076055 HIT:    7054625 MISS:      21430 MSHR_MERGE:       2969
cpu0->cpu0_L1I RFO          ACCESS:          0 HIT:          0 MISS:          0 MSHR_MERGE:          0
cpu0->cpu0_L1I PREFETCH     ACCESS:          0 HIT:          0 MISS:          0 MSHR_MERGE:          0
cpu0->cpu0_L1I WRITE        ACCESS:          0 HIT:          0 MISS:          0 MSHR_MERGE:          0
cpu0->cpu0_L1I TRANSLATION  ACCESS:          0 HIT:          0 MISS:          0 MSHR_MERGE:          0
cpu0->cpu0_L1I PREFETCH REQUESTED:          0 ISSUED:          0 USEFUL:          0 USELESS:          0
cpu0->cpu0_L1I AVERAGE MISS LATENCY: 27.36 cycles
cpu0->cpu0_L1D TOTAL        ACCESS:   18387832 HIT:   16672043 MISS:    1715789 MSHR_MERGE:     368268
cpu0->cpu0_L1D LOAD         ACCESS:    9124751 HIT:    8035786 MISS:    1088965 MSHR_MERGE:     173272
cpu0->cpu0_L1D RFO          ACCESS:          0 HIT:          0 MISS:          0 MSHR_MERGE:          0
cpu0->cpu0_L1D PREFETCH     ACCESS:          0 HIT:          0 MISS:          0 MSHR_MERGE:          0
cpu0->cpu0_L1D WRITE        ACCESS:    8961808 HIT:    8628269 MISS:     333539 MSHR_MERGE:     194680
cpu0->cpu0_L1D TRANSLATION  ACCESS:     301273 HIT:       7988 MISS:     293285 MSHR_MERGE:        316
cpu0->cpu0_L1D PREFETCH REQUESTED:          0 ISSUED:          0 USEFUL:          0 USELESS:          0
cpu0->cpu0_L1D AVERAGE MISS LATENCY: 105.2 cycles
cpu0->cpu0_ITLB TOTAL        ACCESS:    6506079 HIT:    6505876 MISS:        203 MSHR_MERGE:         99
cpu0->cpu0_ITLB LOAD         ACCESS:    6506079 HIT:    6505876 MISS:        203 MSHR_MERGE:         99
cpu0->cpu0_ITLB RFO          ACCESS:          0 HIT:          0 MISS:          0 MSHR_MERGE:          0
cpu0->cpu0_ITLB PREFETCH     ACCESS:          0 HIT:          0 MISS:          0 MSHR_MERGE:          0
cpu0->cpu0_ITLB WRITE        ACCESS:          0 HIT:          0 MISS:          0 MSHR_MERGE:          0
cpu0->cpu0_ITLB TRANSLATION  ACCESS:          0 HIT:          0 MISS:          0 MSHR_MERGE:          0
cpu0->cpu0_ITLB PREFETCH REQUESTED:          0 ISSUED:          0 USEFUL:          0 USELESS:          0
cpu0->cpu0_ITLB AVERAGE MISS LATENCY: 187.1 cycles
cpu0->cpu0_DTLB TOTAL        ACCESS:   16880847 HIT:   15941014 MISS:     939833 MSHR_MERGE:     112148
cpu0->cpu0_DTLB LOAD         ACCESS:   16880847 HIT:   15941014 MISS:     939833 MSHR_MERGE:     112148
cpu0->cpu0_DTLB RFO          ACCESS:          0 HIT:          0 MISS:          0 MSHR_MERGE:          0
cpu0->cpu0_DTLB PREFETCH     ACCESS:          0 HIT:          0 MISS:          0 MSHR_MERGE:          0
cpu0->cpu0_DTLB WRITE        ACCESS:          0 HIT:          0 MISS:          0 MSHR_MERGE:          0
cpu0->cpu0_DTLB TRANSLATION  ACCESS:          0 HIT:          0 MISS:          0 MSHR_MERGE:          0
cpu0->cpu0_DTLB PREFETCH REQUESTED:          0 ISSUED:          0 USEFUL:          0 USELESS:          0
cpu0->cpu0_DTLB AVERAGE MISS LATENCY: 60.38 cycles
cpu0->LLC TOTAL        ACCESS:    2077786 HIT:     452628 MISS:    1625158 MSHR_MERGE:          0
cpu0->LLC LOAD         ACCESS:     557648 HIT:     125653 MISS:     431995 MSHR_MERGE:          0
cpu0->LLC RFO          ACCESS:      79015 HIT:      14331 MISS:      64684 MSHR_MERGE:          0
cpu0->LLC PREFETCH     ACCESS:     763145 HIT:     118317 MISS:     644828 MSHR_MERGE:          0
cpu0->LLC WRITE        ACCESS:     401530 HIT:     141064 MISS:     260466 MSHR_MERGE:          0
cpu0->LLC TRANSLATION  ACCESS:     276448 HIT:      53263 MISS:     223185 MSHR_MERGE:          0
cpu0->LLC PREFETCH REQUESTED:          0 ISSUED:          0 USEFUL:          0 USELESS:          0
cpu0->LLC AVERAGE MISS LATENCY: 117.2 cycles

DRAM Statistics

Channel 0 RQ ROW_BUFFER_HIT:      25583
  ROW_BUFFER_MISS:    1338984
  AVG DBUS CONGESTED CYCLE: 19.71
Channel 0 WQ ROW_BUFFER_HIT:      80395
  ROW_BUFFER_MISS:     212560
  FULL:          0
Channel 0 REFRESHES ISSUED:      11621
