[VMEM] WARNING: physical memory size is smaller than virtual memory size.
WARNING: option --warmup_instructions is deprecated. Use --warmup-instructions instead.
WARNING: option --simulation_instructions is deprecated. Use --simulation-instructions instead.

*** ChampSim Multicore Out-of-Order Simulator ***
Warmup Instructions: 20000000
Simulation Instructions: 50000000
Number of CPUs: 1
Page size: 8192

Off-chip DRAM Size: 64 GiB Channels: 4 Width: 64-bit Data Rate: 3205 MT/s
Heartbeat CPU 0 instructions: 10000000 cycles: 6985782 heartbeat IPC: 1.431 cumulative IPC: 1.431 (Simulation time: 00 hr 01 min 10 sec)
Heartbeat CPU 0 instructions: 20000001 cycles: 11067867 heartbeat IPC: 2.45 cumulative IPC: 1.807 (Simulation time: 00 hr 02 min 01 sec)
Warmup finished CPU 0 instructions: 20000001 cycles: 11067867 cumulative IPC: 1.807 (Simulation time: 00 hr 02 min 01 sec)
Warmup complete CPU 0 instructions: 20000001 cycles: 11067867 cumulative IPC: 1.807 (Simulation time: 00 hr 02 min 01 sec)
Heartbeat CPU 0 instructions: 30000003 cycles: 53523327 heartbeat IPC: 0.2355 cumulative IPC: 0.2355 (Simulation time: 00 hr 05 min 51 sec)
Heartbeat CPU 0 instructions: 40000005 cycles: 95864503 heartbeat IPC: 0.2362 cumulative IPC: 0.2359 (Simulation time: 00 hr 09 min 45 sec)
Heartbeat CPU 0 instructions: 50000006 cycles: 137727228 heartbeat IPC: 0.2389 cumulative IPC: 0.2369 (Simulation time: 00 hr 13 min 50 sec)
Heartbeat CPU 0 instructions: 60000007 cycles: 180154656 heartbeat IPC: 0.2357 cumulative IPC: 0.2366 (Simulation time: 00 hr 18 min 03 sec)
Simulation finished CPU 0 instructions: 50000002 cycles: 210783290 cumulative IPC: 0.2372 (Simulation time: 00 hr 22 min 12 sec)
Simulation complete CPU 0 instructions: 50000002 cycles: 210783290 cumulative IPC: 0.2372 (Simulation time: 00 hr 22 min 12 sec)

ChampSim completed all CPUs

=== Simulation ===
CPU 0 runs traces/473.astar-359B.champsimtrace.xz

Region of Interest Statistics

CPU 0 cumulative IPC: 0.2372 instructions: 50000002 cycles: 210783290
CPU 0 Branch Prediction Accuracy: 93.2% MPKI: 13.43 Average ROB Occupancy at Mispredict: 44.43
Branch type MPKI
BRANCH_DIRECT_JUMP: 0
BRANCH_INDIRECT: 0
BRANCH_CONDITIONAL: 13.42
BRANCH_DIRECT_CALL: 0
BRANCH_INDIRECT_CALL: 0.00054
BRANCH_RETURN: 0

cpu0->cpu0_STLB TOTAL        ACCESS:    1275673 HIT:     889410 MISS:     386263 MSHR_MERGE:          0
cpu0->cpu0_STLB LOAD         ACCESS:    1275673 HIT:     889410 MISS:     386263 MSHR_MERGE:          0
cpu0->cpu0_STLB RFO          ACCESS:          0 HIT:          0 MISS:          0 MSHR_MERGE:          0
cpu0->cpu0_STLB PREFETCH     ACCESS:          0 HIT:          0 MISS:          0 MSHR_MERGE:          0
cpu0->cpu0_STLB WRITE        ACCESS:          0 HIT:          0 MISS:          0 MSHR_MERGE:          0
cpu0->cpu0_STLB TRANSLATION  ACCESS:          0 HIT:          0 MISS:          0 MSHR_MERGE:          0
cpu0->cpu0_STLB PREFETCH REQUESTED:          0 ISSUED:          0 USEFUL:          0 USELESS:          0
cpu0->cpu0_STLB AVERAGE MISS LATENCY: 302.3 cycles
cpu0->cpu0_L2C TOTAL        ACCESS:    4361520 HIT:    1957312 MISS:    2404208 MSHR_MERGE:          0
cpu0->cpu0_L2C LOAD         ACCESS:    1775423 HIT:     732695 MISS:    1042728 MSHR_MERGE:          0
cpu0->cpu0_L2C RFO          ACCESS:     767642 HIT:      47680 MISS:     719962 MSHR_MERGE:          0
cpu0->cpu0_L2C PREFETCH     ACCESS:          0 HIT:          0 MISS:          0 MSHR_MERGE:          0
cpu0->cpu0_L2C WRITE        ACCESS:    1168878 HIT:    1168843 MISS:         35 MSHR_MERGE:          0
cpu0->cpu0_L2C TRANSLATION  ACCESS:     649577 HIT:       8094 MISS:     641483 MSHR_MERGE:          0
cpu0->cpu0_L2C PREFETCH REQUESTED:          0 ISSUED:          0 USEFUL:          0 USELESS:          0
cpu0->cpu0_L2C AVERAGE MISS LATENCY: 140.3 cycles
cpu0->cpu0_L1I TOTAL        ACCESS:     831509 HIT:     831502 MISS:          7 MSHR_MERGE:          0
cpu0->cpu0_L1I LOAD         ACCESS:     831509 HIT:     831502 MISS:          7 MSHR_MERGE:          0
cpu0->cpu0_L1I RFO          ACCESS:          0 HIT:          0 MISS:          0 MSHR_MERGE:          0
cpu0->cpu0_L1I PREFETCH     ACCESS:          0 HIT:          0 MISS:          0 MSHR_MERGE:          0
cpu0->cpu0_L1I WRITE        ACCESS:          0 HIT:          0 MISS:          0 MSHR_MERGE:          0
cpu0->cpu0_L1I TRANSLATION  ACCESS:          0 HIT:          0 MISS:          0 MSHR_MERGE:          0
cpu0->cpu0_L1I PREFETCH REQUESTED:          0 ISSUED:          0 USEFUL:          0 USELESS:          0
cpu0->cpu0_L1I AVERAGE MISS LATENCY: 149.7 cycles
cpu0->cpu0_L1D TOTAL        ACCESS:   19886042 HIT:   15901324 MISS:    3984718 MSHR_MERGE:     792081
cpu0->cpu0_L1D LOAD         ACCESS:   12796786 HIT:   10316739 MISS:    2480047 MSHR_MERGE:     704629
cpu0->cpu0_L1D RFO          ACCESS:          0 HIT:          0 MISS:          0 MSHR_MERGE:          0
cpu0->cpu0_L1D PREFETCH     ACCESS:          0 HIT:          0 MISS:          0 MSHR_MERGE:          0
cpu0->cpu0_L1D WRITE        ACCESS:    6314583 HIT:    5546855 MISS:     767728 MSHR_MERGE:         86
cpu0->cpu0_L1D TRANSLATION  ACCESS:     774673 HIT:      37730 MISS:     736943 MSHR_MERGE:      87366
cpu0->cpu0_L1D PREFETCH REQUESTED:          0 ISSUED:          0 USEFUL:          0 USELESS:          0
cpu0->cpu0_L1D AVERAGE MISS LATENCY: 114.5 cycles
cpu0->cpu0_ITLB TOTAL        ACCESS:     828946 HIT:     828946 MISS:          0 MSHR_MERGE:          0
cpu0->cpu0_ITLB LOAD         ACCESS:     828946 HIT:     828946 MISS:          0 MSHR_MERGE:          0
cpu0->cpu0_ITLB RFO          ACCESS:          0 HIT:          0 MISS:          0 MSHR_MERGE:          0
cpu0->cpu0_ITLB PREFETCH     ACCESS:          0 HIT:          0 MISS:          0 MSHR_MERGE:          0
cpu0->cpu0_ITLB WRITE        ACCESS:          0 HIT:          0 MISS:          0 MSHR_MERGE:          0
cpu0->cpu0_ITLB TRANSLATION  ACCESS:          0 HIT:          0 MISS:          0 MSHR_MERGE:          0
cpu0->cpu0_ITLB PREFETCH REQUESTED:          0 ISSUED:          0 USEFUL:          0 USELESS:          0
cpu0->cpu0_ITLB AVERAGE MISS LATENCY: - cycles
cpu0->cpu0_DTLB TOTAL        ACCESS:   18169171 HIT:   16303552 MISS:    1865619 MSHR_MERGE:     589946
cpu0->cpu0_DTLB LOAD         ACCESS:   18169171 HIT:   16303552 MISS:    1865619 MSHR_MERGE:     589946
cpu0->cpu0_DTLB RFO          ACCESS:          0 HIT:          0 MISS:          0 MSHR_MERGE:          0
cpu0->cpu0_DTLB PREFETCH     ACCESS:          0 HIT:          0 MISS:          0 MSHR_MERGE:          0
cpu0->cpu0_DTLB WRITE        ACCESS:          0 HIT:          0 MISS:          0 MSHR_MERGE:          0
cpu0->cpu0_DTLB TRANSLATION  ACCESS:          0 HIT:          0 MISS:          0 MSHR_MERGE:          0
cpu0->cpu0_DTLB PREFETCH REQUESTED:          0 ISSUED:          0 USEFUL:          0 USELESS:          0
cpu0->cpu0_DTLB AVERAGE MISS LATENCY: 95.83 cycles
cpu0->LLC TOTAL        ACCESS:    3523577 HIT:     755705 MISS:    2767872 MSHR_MERGE:          0
cpu0->LLC LOAD         ACCESS:    1042728 HIT:     207191 MISS:     835537 MSHR_MERGE:          0
cpu0->LLC RFO          ACCESS:     719962 HIT:     139178 MISS:     580784 MSHR_MERGE:          0
cpu0->LLC PREFETCH     ACCESS:          0 HIT:          0 MISS:          0 MSHR_MERGE:          0
cpu0->LLC WRITE        ACCESS:    1119404 HIT:     286209 MISS:     833195 MSHR_MERGE:          0
cpu0->LLC TRANSLATION  ACCESS:     641483 HIT:     123127 MISS:     518356 MSHR_MERGE:          0
cpu0->LLC PREFETCH REQUESTED:          0 ISSUED:          0 USEFUL:          0 USELESS:          0
cpu0->LLC AVERAGE MISS LATENCY: 109.9 cycles

DRAM Statistics

Channel 0 RQ ROW_BUFFER_HIT:        365
  ROW_BUFFER_MISS:     482572
  AVG DBUS CONGESTED CYCLE: 18.55
Channel 0 WQ ROW_BUFFER_HIT:      28346
  ROW_BUFFER_MISS:     189831
  FULL:          0
Channel 0 REFRESHES ISSUED:      17565

Channel 1 RQ ROW_BUFFER_HIT:        365
  ROW_BUFFER_MISS:     485621
  AVG DBUS CONGESTED CYCLE: 18.49
Channel 1 WQ ROW_BUFFER_HIT:      28581
  ROW_BUFFER_MISS:     195372
  FULL:          0
Channel 1 REFRESHES ISSUED:      17565

Channel 2 RQ ROW_BUFFER_HIT:        347
  ROW_BUFFER_MISS:     483693
  AVG DBUS CONGESTED CYCLE: 18.54
Channel 2 WQ ROW_BUFFER_HIT:      28717
  ROW_BUFFER_MISS:     190581
  FULL:          0
Channel 2 REFRESHES ISSUED:      17565

Channel 3 RQ ROW_BUFFER_HIT:        368
  ROW_BUFFER_MISS:     481203
  AVG DBUS CONGESTED CYCLE: 18.54
Channel 3 WQ ROW_BUFFER_HIT:      29036
  ROW_BUFFER_MISS:     191526
  FULL:          0
Channel 3 REFRESHES ISSUED:      17565
