[VMEM] WARNING: physical memory size is smaller than virtual memory size.
WARNING: option --warmup_instructions is deprecated. Use --warmup-instructions instead.
WARNING: option --simulation_instructions is deprecated. Use --simulation-instructions instead.

*** ChampSim Multicore Out-of-Order Simulator ***
Warmup Instructions: 20000000
Simulation Instructions: 50000000
Number of CPUs: 1
Page size: 8192

Off-chip DRAM Size: 64 GiB Channels: 4 Width: 64-bit Data Rate: 3205 MT/s
Heartbeat CPU 0 instructions: 10000000 cycles: 6984630 heartbeat IPC: 1.432 cumulative IPC: 1.432 (Simulation time: 00 hr 01 min 06 sec)
Heartbeat CPU 0 instructions: 20000001 cycles: 11061838 heartbeat IPC: 2.453 cumulative IPC: 1.808 (Simulation time: 00 hr 01 min 53 sec)
Warmup finished CPU 0 instructions: 20000001 cycles: 11061838 cumulative IPC: 1.808 (Simulation time: 00 hr 01 min 53 sec)
Warmup complete CPU 0 instructions: 20000001 cycles: 11061838 cumulative IPC: 1.808 (Simulation time: 00 hr 01 min 53 sec)
Heartbeat CPU 0 instructions: 30000003 cycles: 50809265 heartbeat IPC: 0.2516 cumulative IPC: 0.2516 (Simulation time: 00 hr 05 min 08 sec)
Heartbeat CPU 0 instructions: 40000005 cycles: 90470146 heartbeat IPC: 0.2521 cumulative IPC: 0.2519 (Simulation time: 00 hr 08 min 21 sec)
Heartbeat CPU 0 instructions: 50000006 cycles: 129659092 heartbeat IPC: 0.2552 cumulative IPC: 0.253 (Simulation time: 00 hr 11 min 41 sec)
Heartbeat CPU 0 instructions: 60000007 cycles: 169008668 heartbeat IPC: 0.2541 cumulative IPC: 0.2532 (Simulation time: 00 hr 14 min 54 sec)
Simulation finished CPU 0 instructions: 50000002 cycles: 198685459 cumulative IPC: 0.2517 (Simulation time: 00 hr 18 min 21 sec)
Simulation complete CPU 0 instructions: 50000002 cycles: 198685459 cumulative IPC: 0.2517 (Simulation time: 00 hr 18 min 21 sec)

ChampSim completed all CPUs

=== Simulation ===
CPU 0 runs traces/473.astar-359B.champsimtrace.xz

Region of Interest Statistics

CPU 0 cumulative IPC: 0.2517 instructions: 50000002 cycles: 198685459
CPU 0 Branch Prediction Accuracy: 93.2% MPKI: 13.43 Average ROB Occupancy at Mispredict: 44.39
Branch type MPKI
BRANCH_DIRECT_JUMP: 0
BRANCH_INDIRECT: 0
BRANCH_CONDITIONAL: 13.42
BRANCH_DIRECT_CALL: 0
BRANCH_INDIRECT_CALL: 0.00054
BRANCH_RETURN: 0

cpu0->cpu0_STLB TOTAL        ACCESS:    1275596 HIT:     889330 MISS:     386266 MSHR_MERGE:          0
cpu0->cpu0_STLB LOAD         ACCESS:    1275596 HIT:     889330 MISS:     386266 MSHR_MERGE:          0
cpu0->cpu0_STLB RFO          ACCESS:          0 HIT:          0 MISS:          0 MSHR_MERGE:          0
cpu0->cpu0_STLB PREFETCH     ACCESS:          0 HIT:          0 MISS:          0 MSHR_MERGE:          0
cpu0->cpu0_STLB WRITE        ACCESS:          0 HIT:          0 MISS:          0 MSHR_MERGE:          0
cpu0->cpu0_STLB TRANSLATION  ACCESS:          0 HIT:          0 MISS:          0 MSHR_MERGE:          0
cpu0->cpu0_STLB PREFETCH REQUESTED:          0 ISSUED:          0 USEFUL:          0 USELESS:          0
cpu0->cpu0_STLB AVERAGE MISS LATENCY: 321.7 cycles
cpu0->cpu0_L2C TOTAL        ACCESS:    6087038 HIT:    2802104 MISS:    3284934 MSHR_MERGE:      91534
cpu0->cpu0_L2C LOAD         ACCESS:    1775433 HIT:     908209 MISS:     867224 MSHR_MERGE:      43680
cpu0->cpu0_L2C RFO          ACCESS:     767637 HIT:      43289 MISS:     724348 MSHR_MERGE:          0
cpu0->cpu0_L2C PREFETCH     ACCESS:    1725705 HIT:     676112 MISS:    1049593 MSHR_MERGE:      47854
cpu0->cpu0_L2C WRITE        ACCESS:    1168866 HIT:    1168600 MISS:        266 MSHR_MERGE:          0
cpu0->cpu0_L2C TRANSLATION  ACCESS:     649397 HIT:       5894 MISS:     643503 MSHR_MERGE:          0
cpu0->cpu0_L2C PREFETCH REQUESTED:    1725705 ISSUED:    1725705 USEFUL:     306816 USELESS:     696235
cpu0->cpu0_L2C AVERAGE MISS LATENCY: 132.8 cycles
cpu0->cpu0_L1I TOTAL        ACCESS:     833377 HIT:     833370 MISS:          7 MSHR_MERGE:          0
cpu0->cpu0_L1I LOAD         ACCESS:     833377 HIT:     833370 MISS:          7 MSHR_MERGE:          0
cpu0->cpu0_L1I RFO          ACCESS:          0 HIT:          0 MISS:          0 MSHR_MERGE:          0
cpu0->cpu0_L1I PREFETCH     ACCESS:          0 HIT:          0 MISS:          0 MSHR_MERGE:          0
cpu0->cpu0_L1I WRITE        ACCESS:          0 HIT:          0 MISS:          0 MSHR_MERGE:          0
cpu0->cpu0_L1I TRANSLATION  ACCESS:          0 HIT:          0 MISS:          0 MSHR_MERGE:          0
cpu0->cpu0_L1I PREFETCH REQUESTED:          0 ISSUED:          0 USEFUL:          0 USELESS:          0
cpu0->cpu0_L1I AVERAGE MISS LATENCY: 109.3 cycles
cpu0->cpu0_L1D TOTAL        ACCESS:   19863954 HIT:   15954146 MISS:    3909808 MSHR_MERGE:     717344
cpu0->cpu0_L1D LOAD         ACCESS:   12773779 HIT:   10372580 MISS:    2401199 MSHR_MERGE:     625771
cpu0->cpu0_L1D RFO          ACCESS:          0 HIT:          0 MISS:          0 MSHR_MERGE:          0
cpu0->cpu0_L1D PREFETCH     ACCESS:          0 HIT:          0 MISS:          0 MSHR_MERGE:          0
cpu0->cpu0_L1D WRITE        ACCESS:    6314524 HIT:    5546787 MISS:     767737 MSHR_MERGE:         98
cpu0->cpu0_L1D TRANSLATION  ACCESS:     775651 HIT:      34779 MISS:     740872 MSHR_MERGE:      91475
cpu0->cpu0_L1D PREFETCH REQUESTED:          0 ISSUED:          0 USEFUL:          0 USELESS:          0
cpu0->cpu0_L1D AVERAGE MISS LATENCY: 102 cycles
cpu0->cpu0_ITLB TOTAL        ACCESS:     831098 HIT:     831098 MISS:          0 MSHR_MERGE:          0
cpu0->cpu0_ITLB LOAD         ACCESS:     831098 HIT:     831098 MISS:          0 MSHR_MERGE:          0
cpu0->cpu0_ITLB RFO          ACCESS:          0 HIT:          0 MISS:          0 MSHR_MERGE:          0
cpu0->cpu0_ITLB PREFETCH     ACCESS:          0 HIT:          0 MISS:          0 MSHR_MERGE:          0
cpu0->cpu0_ITLB WRITE        ACCESS:          0 HIT:          0 MISS:          0 MSHR_MERGE:          0
cpu0->cpu0_ITLB TRANSLATION  ACCESS:          0 HIT:          0 MISS:          0 MSHR_MERGE:          0
cpu0->cpu0_ITLB PREFETCH REQUESTED:          0 ISSUED:          0 USEFUL:          0 USELESS:          0
cpu0->cpu0_ITLB AVERAGE MISS LATENCY: - cycles
cpu0->cpu0_DTLB TOTAL        ACCESS:   18149680 HIT:   16273994 MISS:    1875686 MSHR_MERGE:     600090
cpu0->cpu0_DTLB LOAD         ACCESS:   18149680 HIT:   16273994 MISS:    1875686 MSHR_MERGE:     600090
cpu0->cpu0_DTLB RFO          ACCESS:          0 HIT:          0 MISS:          0 MSHR_MERGE:          0
cpu0->cpu0_DTLB PREFETCH     ACCESS:          0 HIT:          0 MISS:          0 MSHR_MERGE:          0
cpu0->cpu0_DTLB WRITE        ACCESS:          0 HIT:          0 MISS:          0 MSHR_MERGE:          0
cpu0->cpu0_DTLB TRANSLATION  ACCESS:          0 HIT:          0 MISS:          0 MSHR_MERGE:          0
cpu0->cpu0_DTLB PREFETCH REQUESTED:          0 ISSUED:          0 USEFUL:          0 USELESS:          0
cpu0->cpu0_DTLB AVERAGE MISS LATENCY: 101.7 cycles
cpu0->LLC TOTAL        ACCESS:    4319094 HIT:    1064818 MISS:    3254276 MSHR_MERGE:          0
cpu0->LLC LOAD         ACCESS:     823542 HIT:     244713 MISS:     578829 MSHR_MERGE:          0
cpu0->LLC RFO          ACCESS:     724347 HIT:     226333 MISS:     498014 MSHR_MERGE:          0
cpu0->LLC PREFETCH     ACCESS:    1001739 HIT:      99006 MISS:     902733 MSHR_MERGE:          0
cpu0->LLC WRITE        ACCESS:    1125963 HIT:     425461 MISS:     700502 MSHR_MERGE:          0
cpu0->LLC TRANSLATION  ACCESS:     643503 HIT:      69305 MISS:     574198 MSHR_MERGE:          0
cpu0->LLC PREFETCH REQUESTED:          0 ISSUED:          0 USEFUL:          0 USELESS:          0
cpu0->LLC AVERAGE MISS LATENCY: 111.2 cycles

DRAM Statistics

Channel 0 RQ ROW_BUFFER_HIT:        552
  ROW_BUFFER_MISS:     636762
  AVG DBUS CONGESTED CYCLE: 18.85
Channel 0 WQ ROW_BUFFER_HIT:      26123
  ROW_BUFFER_MISS:     162981
  FULL:          0
Channel 0 REFRESHES ISSUED:      16557

Channel 1 RQ ROW_BUFFER_HIT:        538
  ROW_BUFFER_MISS:     638278
  AVG DBUS CONGESTED CYCLE: 18.85
Channel 1 WQ ROW_BUFFER_HIT:      25820
  ROW_BUFFER_MISS:     164136
  FULL:          0
Channel 1 REFRESHES ISSUED:      16557

Channel 2 RQ ROW_BUFFER_HIT:        528
  ROW_BUFFER_MISS:     638358
  AVG DBUS CONGESTED CYCLE: 18.92
Channel 2 WQ ROW_BUFFER_HIT:      26081
  ROW_BUFFER_MISS:     161128
  FULL:          0
Channel 2 REFRESHES ISSUED:      16557

Channel 3 RQ ROW_BUFFER_HIT:        558
  ROW_BUFFER_MISS:     638015
  AVG DBUS CONGESTED CYCLE: 18.9
Channel 3 WQ ROW_BUFFER_HIT:      26446
  ROW_BUFFER_MISS:     160859
  FULL:          0
Channel 3 REFRESHES ISSUED:      16557
