[VMEM] WARNING: physical memory size is smaller than virtual memory size.
WARNING: option --warmup_instructions is deprecated. Use --warmup-instructions instead.
WARNING: option --simulation_instructions is deprecated. Use --simulation-instructions instead.

*** ChampSim Multicore Out-of-Order Simulator ***
Warmup Instructions: 20000000
Simulation Instructions: 50000000
Number of CPUs: 1
Page size: 8192

Off-chip DRAM Size: 64 GiB Channels: 4 Width: 64-bit Data Rate: 3205 MT/s
Heartbeat CPU 0 instructions: 10000001 cycles: 4633972 heartbeat IPC: 2.158 cumulative IPC: 2.158 (Simulation time: 00 hr 00 min 51 sec)
Heartbeat CPU 0 instructions: 20000002 cycles: 9214146 heartbeat IPC: 2.183 cumulative IPC: 2.171 (Simulation time: 00 hr 01 min 41 sec)
Warmup finished CPU 0 instructions: 20000002 cycles: 9214146 cumulative IPC: 2.171 (Simulation time: 00 hr 01 min 41 sec)
Warmup complete CPU 0 instructions: 20000002 cycles: 9214146 cumulative IPC: 2.171 (Simulation time: 00 hr 01 min 41 sec)
Heartbeat CPU 0 instructions: 30000005 cycles: 37070195 heartbeat IPC: 0.359 cumulative IPC: 0.359 (Simulation time: 00 hr 03 min 48 sec)
Heartbeat CPU 0 instructions: 40000005 cycles: 64765157 heartbeat IPC: 0.3611 cumulative IPC: 0.36 (Simulation time: 00 hr 05 min 55 sec)
Heartbeat CPU 0 instructions: 50000007 cycles: 92735732 heartbeat IPC: 0.3575 cumulative IPC: 0.3592 (Simulation time: 00 hr 08 min 00 sec)
Heartbeat CPU 0 instructions: 60000007 cycles: 120517140 heartbeat IPC: 0.36 cumulative IPC: 0.3594 (Simulation time: 00 hr 10 min 05 sec)
Simulation finished CPU 0 instructions: 50000002 cycles: 139486555 cumulative IPC: 0.3585 (Simulation time: 00 hr 12 min 14 sec)
Simulation complete CPU 0 instructions: 50000002 cycles: 139486555 cumulative IPC: 0.3585 (Simulation time: 00 hr 12 min 14 sec)

ChampSim completed all CPUs

=== Simulation ===
CPU 0 runs traces/605.mcf_s-1152B.champsimtrace.xz

Region of Interest Statistics

CPU 0 cumulative IPC: 0.3585 instructions: 50000002 cycles: 139486555
CPU 0 Branch Prediction Accuracy: 90.19% MPKI: 24.48 Average ROB Occupancy at Mispredict: 21.39
Branch type MPKI
BRANCH_DIRECT_JUMP: 0.2057
BRANCH_INDIRECT: 0
BRANCH_CONDITIONAL: 24.27
BRANCH_DIRECT_CALL: 0
BRANCH_INDIRECT_CALL: 0.0036
BRANCH_RETURN: 2e-05

cpu0->cpu0_STLB TOTAL        ACCESS:    1006182 HIT:    1000425 MISS:       5757 MSHR_MERGE:          0
cpu0->cpu0_STLB LOAD         ACCESS:    1006182 HIT:    1000425 MISS:       5757 MSHR_MERGE:          0
cpu0->cpu0_STLB RFO          ACCESS:          0 HIT:          0 MISS:          0 MSHR_MERGE:          0
cpu0->cpu0_STLB PREFETCH     ACCESS:          0 HIT:          0 MISS:          0 MSHR_MERGE:          0
cpu0->cpu0_STLB WRITE        ACCESS:          0 HIT:          0 MISS:          0 MSHR_MERGE:          0
cpu0->cpu0_STLB TRANSLATION  ACCESS:          0 HIT:          0 MISS:          0 MSHR_MERGE:          0
cpu0->cpu0_STLB PREFETCH REQUESTED:          0 ISSUED:          0 USEFUL:          0 USELESS:          0
cpu0->cpu0_STLB AVERAGE MISS LATENCY: 601.9 cycles
cpu0->cpu0_L2C TOTAL        ACCESS:    5516304 HIT:    1687604 MISS:    3828700 MSHR_MERGE:     189287
cpu0->cpu0_L2C LOAD         ACCESS:    2552733 HIT:     999716 MISS:    1553017 MSHR_MERGE:     139480
cpu0->cpu0_L2C RFO          ACCESS:     187387 HIT:      37483 MISS:     149904 MSHR_MERGE:          0
cpu0->cpu0_L2C PREFETCH     ACCESS:    2502065 HIT:     383816 MISS:    2118249 MSHR_MERGE:      49807
cpu0->cpu0_L2C WRITE        ACCESS:     265771 HIT:     265110 MISS:        661 MSHR_MERGE:          0
cpu0->cpu0_L2C TRANSLATION  ACCESS:       8348 HIT:       1479 MISS:       6869 MSHR_MERGE:          0
cpu0->cpu0_L2C PREFETCH REQUESTED:    2502066 ISSUED:    2502066 USEFUL:     782551 USELESS:    1285938
cpu0->cpu0_L2C AVERAGE MISS LATENCY: 50.43 cycles
cpu0->cpu0_L1I TOTAL        ACCESS:     434110 HIT:     434110 MISS:          0 MSHR_MERGE:          0
cpu0->cpu0_L1I LOAD         ACCESS:     434110 HIT:     434110 MISS:          0 MSHR_MERGE:          0
cpu0->cpu0_L1I RFO          ACCESS:          0 HIT:          0 MISS:          0 MSHR_MERGE:          0
cpu0->cpu0_L1I PREFETCH     ACCESS:          0 HIT:          0 MISS:          0 MSHR_MERGE:          0
cpu0->cpu0_L1I WRITE        ACCESS:          0 HIT:          0 MISS:          0 MSHR_MERGE:          0
cpu0->cpu0_L1I TRANSLATION  ACCESS:          0 HIT:          0 MISS:          0 MSHR_MERGE:          0
cpu0->cpu0_L1I PREFETCH REQUESTED:          0 ISSUED:          0 USEFUL:          0 USELESS:          0
cpu0->cpu0_L1I AVERAGE MISS LATENCY: - cycles
cpu0->cpu0_L1D TOTAL        ACCESS:   17978723 HIT:   14385591 MISS:    3593132 MSHR_MERGE:     844661
cpu0->cpu0_L1D LOAD         ACCESS:   12802842 HIT:    9721467 MISS:    3081375 MSHR_MERGE:     528642
cpu0->cpu0_L1D RFO          ACCESS:          0 HIT:          0 MISS:          0 MSHR_MERGE:          0
cpu0->cpu0_L1D PREFETCH     ACCESS:          0 HIT:          0 MISS:          0 MSHR_MERGE:          0
cpu0->cpu0_L1D WRITE        ACCESS:    5164271 HIT:    4660862 MISS:     503409 MSHR_MERGE:     316019
cpu0->cpu0_L1D TRANSLATION  ACCESS:      11610 HIT:       3262 MISS:       8348 MSHR_MERGE:          0
cpu0->cpu0_L1D PREFETCH REQUESTED:          0 ISSUED:          0 USEFUL:          0 USELESS:          0
cpu0->cpu0_L1D AVERAGE MISS LATENCY: 40.01 cycles
cpu0->cpu0_ITLB TOTAL        ACCESS:     402310 HIT:     402310 MISS:          0 MSHR_MERGE:          0
cpu0->cpu0_ITLB LOAD         ACCESS:     402310 HIT:     402310 MISS:          0 MSHR_MERGE:          0
cpu0->cpu0_ITLB RFO          ACCESS:          0 HIT:          0 MISS:          0 MSHR_MERGE:          0
cpu0->cpu0_ITLB PREFETCH     ACCESS:          0 HIT:          0 MISS:          0 MSHR_MERGE:          0
cpu0->cpu0_ITLB WRITE        ACCESS:          0 HIT:          0 MISS:          0 MSHR_MERGE:          0
cpu0->cpu0_ITLB TRANSLATION  ACCESS:          0 HIT:          0 MISS:          0 MSHR_MERGE:          0
cpu0->cpu0_ITLB PREFETCH REQUESTED:          0 ISSUED:          0 USEFUL:          0 USELESS:          0
cpu0->cpu0_ITLB AVERAGE MISS LATENCY: - cycles
cpu0->cpu0_DTLB TOTAL        ACCESS:   16839825 HIT:   15646751 MISS:    1193074 MSHR_MERGE:     186892
cpu0->cpu0_DTLB LOAD         ACCESS:   16839825 HIT:   15646751 MISS:    1193074 MSHR_MERGE:     186892
cpu0->cpu0_DTLB RFO          ACCESS:          0 HIT:          0 MISS:          0 MSHR_MERGE:          0
cpu0->cpu0_DTLB PREFETCH     ACCESS:          0 HIT:          0 MISS:          0 MSHR_MERGE:          0
cpu0->cpu0_DTLB WRITE        ACCESS:          0 HIT:          0 MISS:          0 MSHR_MERGE:          0
cpu0->cpu0_DTLB TRANSLATION  ACCESS:          0 HIT:          0 MISS:          0 MSHR_MERGE:          0
cpu0->cpu0_DTLB PREFETCH REQUESTED:          0 ISSUED:          0 USEFUL:          0 USELESS:          0
cpu0->cpu0_DTLB AVERAGE MISS LATENCY: 7.45 cycles
cpu0->LLC TOTAL        ACCESS:    3851552 HIT:    2285993 MISS:    1565559 MSHR_MERGE:          0
cpu0->LLC LOAD         ACCESS:    1413537 HIT:    1039173 MISS:     374364 MSHR_MERGE:          0
cpu0->LLC RFO          ACCESS:     149904 HIT:     141230 MISS:       8674 MSHR_MERGE:          0
cpu0->LLC PREFETCH     ACCESS:    2068442 HIT:     903746 MISS:    1164696 MSHR_MERGE:          0
cpu0->LLC WRITE        ACCESS:     212800 HIT:     201809 MISS:      10991 MSHR_MERGE:          0
cpu0->LLC TRANSLATION  ACCESS:       6869 HIT:         35 MISS:       6834 MSHR_MERGE:          0
cpu0->LLC PREFETCH REQUESTED:          0 ISSUED:          0 USEFUL:          0 USELESS:          0
cpu0->LLC AVERAGE MISS LATENCY: 124.3 cycles

DRAM Statistics

Channel 0 RQ ROW_BUFFER_HIT:         17
  ROW_BUFFER_MISS:     391198
  AVG DBUS CONGESTED CYCLE: 18.84
Channel 0 WQ ROW_BUFFER_HIT:        540
  ROW_BUFFER_MISS:       3925
  FULL:          0
Channel 0 REFRESHES ISSUED:      11624

Channel 1 RQ ROW_BUFFER_HIT:          5
  ROW_BUFFER_MISS:     386724
  AVG DBUS CONGESTED CYCLE: 18.41
Channel 1 WQ ROW_BUFFER_HIT:        491
  ROW_BUFFER_MISS:       3712
  FULL:          0
Channel 1 REFRESHES ISSUED:      11624

Channel 2 RQ ROW_BUFFER_HIT:         11
  ROW_BUFFER_MISS:     387804
  AVG DBUS CONGESTED CYCLE: 18.76
Channel 2 WQ ROW_BUFFER_HIT:        483
  ROW_BUFFER_MISS:       3670
  FULL:          0
Channel 2 REFRESHES ISSUED:      11624

Channel 3 RQ ROW_BUFFER_HIT:         15
  ROW_BUFFER_MISS:     388791
  AVG DBUS CONGESTED CYCLE: 18.93
Channel 3 WQ ROW_BUFFER_HIT:        528
  ROW_BUFFER_MISS:       3905
  FULL:          0
Channel 3 REFRESHES ISSUED:      11624
