[VMEM] WARNING: physical memory size is smaller than virtual memory size.
WARNING: option --warmup_instructions is deprecated. Use --warmup-instructions instead.
WARNING: option --simulation_instructions is deprecated. Use --simulation-instructions instead.

*** ChampSim Multicore Out-of-Order Simulator ***
Warmup Instructions: 20000000
Simulation Instructions: 50000000
Number of CPUs: 1
Page size: 8192

Off-chip DRAM Size: 64 GiB Channels: 4 Width: 64-bit Data Rate: 3205 MT/s
Heartbeat CPU 0 instructions: 10000003 cycles: 6088454 heartbeat IPC: 1.642 cumulative IPC: 1.642 (Simulation time: 00 hr 00 min 58 sec)
Warmup finished CPU 0 instructions: 20000000 cycles: 12020121 cumulative IPC: 1.664 (Simulation time: 00 hr 02 min 00 sec)
Warmup complete CPU 0 instructions: 20000000 cycles: 12020121 cumulative IPC: 1.664 (Simulation time: 00 hr 02 min 00 sec)
Heartbeat CPU 0 instructions: 20000004 cycles: 12020144 heartbeat IPC: 1.686 cumulative IPC: 0.1739 (Simulation time: 00 hr 02 min 00 sec)
Heartbeat CPU 0 instructions: 30000007 cycles: 28135293 heartbeat IPC: 0.6205 cumulative IPC: 0.6205 (Simulation time: 00 hr 03 min 47 sec)
Heartbeat CPU 0 instructions: 40000009 cycles: 37313345 heartbeat IPC: 1.09 cumulative IPC: 0.7907 (Simulation time: 00 hr 04 min 54 sec)
Heartbeat CPU 0 instructions: 50000009 cycles: 50240418 heartbeat IPC: 0.7736 cumulative IPC: 0.7849 (Simulation time: 00 hr 06 min 22 sec)
Heartbeat CPU 0 instructions: 60000010 cycles: 70151354 heartbeat IPC: 0.5022 cumulative IPC: 0.6881 (Simulation time: 00 hr 08 min 27 sec)
Simulation finished CPU 0 instructions: 50000002 cycles: 70571091 cumulative IPC: 0.7085 (Simulation time: 00 hr 09 min 50 sec)
Simulation complete CPU 0 instructions: 50000002 cycles: 70571091 cumulative IPC: 0.7085 (Simulation time: 00 hr 09 min 50 sec)

ChampSim completed all CPUs

=== Simulation ===
CPU 0 runs traces/429.mcf-217B.champsimtrace.xz

Region of Interest Statistics

CPU 0 cumulative IPC: 0.7085 instructions: 50000002 cycles: 70571091
CPU 0 Branch Prediction Accuracy: 98.95% MPKI: 1.194 Average ROB Occupancy at Mispredict: 121.4
Branch type MPKI
BRANCH_DIRECT_JUMP: 0
BRANCH_INDIRECT: 0
BRANCH_CONDITIONAL: 1.194
BRANCH_DIRECT_CALL: 0
BRANCH_INDIRECT_CALL: 0
BRANCH_RETURN: 0

cpu0->cpu0_STLB TOTAL        ACCESS:      57963 HIT:      56113 MISS:       1850 MSHR_MERGE:          0
cpu0->cpu0_STLB LOAD         ACCESS:      57963 HIT:      56113 MISS:       1850 MSHR_MERGE:          0
cpu0->cpu0_STLB RFO          ACCESS:          0 HIT:          0 MISS:          0 MSHR_MERGE:          0
cpu0->cpu0_STLB PREFETCH     ACCESS:          0 HIT:          0 MISS:          0 MSHR_MERGE:          0
cpu0->cpu0_STLB WRITE        ACCESS:          0 HIT:          0 MISS:          0 MSHR_MERGE:          0
cpu0->cpu0_STLB TRANSLATION  ACCESS:          0 HIT:          0 MISS:          0 MSHR_MERGE:          0
cpu0->cpu0_STLB PREFETCH REQUESTED:          0 ISSUED:          0 USEFUL:          0 USELESS:          0
cpu0->cpu0_STLB AVERAGE MISS LATENCY: 663.7 cycles
cpu0->cpu0_L2C TOTAL        ACCESS:    9079072 HIT:    4381629 MISS:    4697443 MSHR_MERGE:    1985703
cpu0->cpu0_L2C LOAD         ACCESS:    2598471 HIT:    1933368 MISS:     665103 MSHR_MERGE:     489369
cpu0->cpu0_L2C RFO          ACCESS:       1568 HIT:       1428 MISS:        140 MSHR_MERGE:          6
cpu0->cpu0_L2C PREFETCH     ACCESS:    6379428 HIT:    2350861 MISS:    4028567 MSHR_MERGE:    1496328
cpu0->cpu0_L2C WRITE        ACCESS:      96212 HIT:      95482 MISS:        730 MSHR_MERGE:          0
cpu0->cpu0_L2C TRANSLATION  ACCESS:       3393 HIT:        490 MISS:       2903 MSHR_MERGE:          0
cpu0->cpu0_L2C PREFETCH REQUESTED:    6379480 ISSUED:    6379413 USEFUL:    2403439 USELESS:     128835
cpu0->cpu0_L2C AVERAGE MISS LATENCY: 93.97 cycles
cpu0->cpu0_L1I TOTAL        ACCESS:    9320651 HIT:    9320651 MISS:          0 MSHR_MERGE:          0
cpu0->cpu0_L1I LOAD         ACCESS:    9320651 HIT:    9320651 MISS:          0 MSHR_MERGE:          0
cpu0->cpu0_L1I RFO          ACCESS:          0 HIT:          0 MISS:          0 MSHR_MERGE:          0
cpu0->cpu0_L1I PREFETCH     ACCESS:          0 HIT:          0 MISS:          0 MSHR_MERGE:          0
cpu0->cpu0_L1I WRITE        ACCESS:          0 HIT:          0 MISS:          0 MSHR_MERGE:          0
cpu0->cpu0_L1I TRANSLATION  ACCESS:          0 HIT:          0 MISS:          0 MSHR_MERGE:          0
cpu0->cpu0_L1I PREFETCH REQUESTED:          0 ISSUED:          0 USEFUL:          0 USELESS:          0
cpu0->cpu0_L1I AVERAGE MISS LATENCY: - cycles
cpu0->cpu0_L1D TOTAL        ACCESS:   16451818 HIT:   13759862 MISS:    2691956 MSHR_MERGE:      88493
cpu0->cpu0_L1D LOAD         ACCESS:    8588331 HIT:    5903392 MISS:    2684939 MSHR_MERGE:      86437
cpu0->cpu0_L1D RFO          ACCESS:          0 HIT:          0 MISS:          0 MSHR_MERGE:          0
cpu0->cpu0_L1D PREFETCH     ACCESS:          0 HIT:          0 MISS:          0 MSHR_MERGE:          0
cpu0->cpu0_L1D WRITE        ACCESS:    7859780 HIT:    7856156 MISS:       3624 MSHR_MERGE:       2056
cpu0->cpu0_L1D TRANSLATION  ACCESS:       3707 HIT:        314 MISS:       3393 MSHR_MERGE:          0
cpu0->cpu0_L1D PREFETCH REQUESTED:          0 ISSUED:          0 USEFUL:          0 USELESS:          0
cpu0->cpu0_L1D AVERAGE MISS LATENCY: 32.4 cycles
cpu0->cpu0_ITLB TOTAL        ACCESS:    8140912 HIT:    8140912 MISS:          0 MSHR_MERGE:          0
cpu0->cpu0_ITLB LOAD         ACCESS:    8140912 HIT:    8140912 MISS:          0 MSHR_MERGE:          0
cpu0->cpu0_ITLB RFO          ACCESS:          0 HIT:          0 MISS:          0 MSHR_MERGE:          0
cpu0->cpu0_ITLB PREFETCH     ACCESS:          0 HIT:          0 MISS:          0 MSHR_MERGE:          0
cpu0->cpu0_ITLB WRITE        ACCESS:          0 HIT:          0 MISS:          0 MSHR_MERGE:          0
cpu0->cpu0_ITLB TRANSLATION  ACCESS:          0 HIT:          0 MISS:          0 MSHR_MERGE:          0
cpu0->cpu0_ITLB PREFETCH REQUESTED:          0 ISSUED:          0 USEFUL:          0 USELESS:          0
cpu0->cpu0_ITLB AVERAGE MISS LATENCY: - cycles
cpu0->cpu0_DTLB TOTAL        ACCESS:   14940955 HIT:   14867112 MISS:      73843 MSHR_MERGE:      15880
cpu0->cpu0_DTLB LOAD         ACCESS:   14940955 HIT:   14867112 MISS:      73843 MSHR_MERGE:      15880
cpu0->cpu0_DTLB RFO          ACCESS:          0 HIT:          0 MISS:          0 MSHR_MERGE:          0
cpu0->cpu0_DTLB PREFETCH     ACCESS:          0 HIT:          0 MISS:          0 MSHR_MERGE:          0
cpu0->cpu0_DTLB WRITE        ACCESS:          0 HIT:          0 MISS:          0 MSHR_MERGE:          0
cpu0->cpu0_DTLB TRANSLATION  ACCESS:          0 HIT:          0 MISS:          0 MSHR_MERGE:          0
cpu0->cpu0_DTLB PREFETCH REQUESTED:          0 ISSUED:          0 USEFUL:          0 USELESS:          0
cpu0->cpu0_DTLB AVERAGE MISS LATENCY: 25.21 cycles
cpu0->LLC TOTAL        ACCESS:    2791819 HIT:     677295 MISS:    2114524 MSHR_MERGE:          0
cpu0->LLC LOAD         ACCESS:     175734 HIT:      23838 MISS:     151896 MSHR_MERGE:          0
cpu0->LLC RFO          ACCESS:        134 HIT:        104 MISS:         30 MSHR_MERGE:          0
cpu0->LLC PREFETCH     ACCESS:    2532238 HIT:     632637 MISS:    1899601 MSHR_MERGE:          0
cpu0->LLC WRITE        ACCESS:      80810 HIT:      20706 MISS:      60104 MSHR_MERGE:          0
cpu0->LLC TRANSLATION  ACCESS:       2903 HIT:         10 MISS:       2893 MSHR_MERGE:          0
cpu0->LLC PREFETCH REQUESTED:          0 ISSUED:          0 USEFUL:          0 USELESS:          0
cpu0->LLC AVERAGE MISS LATENCY: 97.79 cycles

DRAM Statistics

Channel 0 RQ ROW_BUFFER_HIT:         20
  ROW_BUFFER_MISS:     512271
  AVG DBUS CONGESTED CYCLE: 14.72
Channel 0 WQ ROW_BUFFER_HIT:       2192
  ROW_BUFFER_MISS:      16893
  FULL:          0
Channel 0 REFRESHES ISSUED:       5881

Channel 1 RQ ROW_BUFFER_HIT:         16
  ROW_BUFFER_MISS:     510914
  AVG DBUS CONGESTED CYCLE: 14.76
Channel 1 WQ ROW_BUFFER_HIT:       2192
  ROW_BUFFER_MISS:      17193
  FULL:          0
Channel 1 REFRESHES ISSUED:       5881

Channel 2 RQ ROW_BUFFER_HIT:         16
  ROW_BUFFER_MISS:     515304
  AVG DBUS CONGESTED CYCLE: 14.45
Channel 2 WQ ROW_BUFFER_HIT:       2287
  ROW_BUFFER_MISS:      16467
  FULL:          0
Channel 2 REFRESHES ISSUED:       5881

Channel 3 RQ ROW_BUFFER_HIT:         17
  ROW_BUFFER_MISS:     515842
  AVG DBUS CONGESTED CYCLE: 14.28
Channel 3 WQ ROW_BUFFER_HIT:       2161
  ROW_BUFFER_MISS:      16269
  FULL:          0
Channel 3 REFRESHES ISSUED:       5881
