[VMEM] WARNING: physical memory size is smaller than virtual memory size.
WARNING: option --warmup_instructions is deprecated. Use --warmup-instructions instead.
WARNING: option --simulation_instructions is deprecated. Use --simulation-instructions instead.

*** ChampSim Multicore Out-of-Order Simulator ***
Warmup Instructions: 20000000
Simulation Instructions: 50000000
Number of CPUs: 1
Page size: 65536

Off-chip DRAM Size: 16 GiB Channels: 1 Width: 64-bit Data Rate: 3205 MT/s
Heartbeat CPU 0 instructions: 10000000 cycles: 4425729 heartbeat IPC: 2.26 cumulative IPC: 2.26 (Simulation time: 00 hr 00 min 47 sec)
Heartbeat CPU 0 instructions: 20000001 cycles: 8230338 heartbeat IPC: 2.628 cumulative IPC: 2.43 (Simulation time: 00 hr 01 min 31 sec)
Warmup finished CPU 0 instructions: 20000001 cycles: 8230338 cumulative IPC: 2.43 (Simulation time: 00 hr 01 min 31 sec)
Warmup complete CPU 0 instructions: 20000001 cycles: 8230338 cumulative IPC: 2.43 (Simulation time: 00 hr 01 min 31 sec)
Heartbeat CPU 0 instructions: 30000003 cycles: 42567427 heartbeat IPC: 0.2912 cumulative IPC: 0.2912 (Simulation time: 00 hr 04 min 14 sec)
Heartbeat CPU 0 instructions: 40000005 cycles: 77119575 heartbeat IPC: 0.2894 cumulative IPC: 0.2903 (Simulation time: 00 hr 07 min 07 sec)
Heartbeat CPU 0 instructions: 50000006 cycles: 111908685 heartbeat IPC: 0.2874 cumulative IPC: 0.2894 (Simulation time: 00 hr 10 min 06 sec)
Heartbeat CPU 0 instructions: 60000007 cycles: 145677855 heartbeat IPC: 0.2961 cumulative IPC: 0.291 (Simulation time: 00 hr 12 min 51 sec)
Simulation finished CPU 0 instructions: 50000002 cycles: 171970708 cumulative IPC: 0.2907 (Simulation time: 00 hr 15 min 47 sec)
Simulation complete CPU 0 instructions: 50000002 cycles: 171970708 cumulative IPC: 0.2907 (Simulation time: 00 hr 15 min 47 sec)

ChampSim completed all CPUs

=== Simulation ===
CPU 0 runs traces/473.astar-359B.champsimtrace.xz

Region of Interest Statistics

CPU 0 cumulative IPC: 0.2907 instructions: 50000002 cycles: 171970708
CPU 0 Branch Prediction Accuracy: 93.2% MPKI: 13.43 Average ROB Occupancy at Mispredict: 44.4
Branch type MPKI
BRANCH_DIRECT_JUMP: 0
BRANCH_INDIRECT: 0
BRANCH_CONDITIONAL: 13.42
BRANCH_DIRECT_CALL: 0
BRANCH_INDIRECT_CALL: 0.00054
BRANCH_RETURN: 0

cpu0->cpu0_STLB TOTAL        ACCESS:     764589 HIT:     764589 MISS:          0 MSHR_MERGE:          0
cpu0->cpu0_STLB LOAD         ACCESS:     764589 HIT:     764589 MISS:          0 MSHR_MERGE:          0
cpu0->cpu0_STLB RFO          ACCESS:          0 HIT:          0 MISS:          0 MSHR_MERGE:          0
cpu0->cpu0_STLB PREFETCH     ACCESS:          0 HIT:          0 MISS:          0 MSHR_MERGE:          0
cpu0->cpu0_STLB WRITE        ACCESS:          0 HIT:          0 MISS:          0 MSHR_MERGE:          0
cpu0->cpu0_STLB TRANSLATION  ACCESS:          0 HIT:          0 MISS:          0 MSHR_MERGE:          0
cpu0->cpu0_STLB PREFETCH REQUESTED:          0 ISSUED:          0 USEFUL:          0 USELESS:          0
cpu0->cpu0_STLB AVERAGE MISS LATENCY: - cycles
cpu0->cpu0_L2C TOTAL        ACCESS:    5409021 HIT:    2842073 MISS:    2566948 MSHR_MERGE:      92086
cpu0->cpu0_L2C LOAD         ACCESS:    1760604 HIT:     924632 MISS:     835972 MSHR_MERGE:      51885
cpu0->cpu0_L2C RFO          ACCESS:     766846 HIT:      44332 MISS:     722514 MSHR_MERGE:          0
cpu0->cpu0_L2C PREFETCH     ACCESS:    1713084 HIT:     704920 MISS:    1008164 MSHR_MERGE:      40201
cpu0->cpu0_L2C WRITE        ACCESS:    1168487 HIT:    1168189 MISS:        298 MSHR_MERGE:          0
cpu0->cpu0_L2C TRANSLATION  ACCESS:          0 HIT:          0 MISS:          0 MSHR_MERGE:          0
cpu0->cpu0_L2C PREFETCH REQUESTED:    1713084 ISSUED:    1713084 USEFUL:     312294 USELESS:     657133
cpu0->cpu0_L2C AVERAGE MISS LATENCY: 249 cycles
cpu0->cpu0_L1I TOTAL        ACCESS:     826583 HIT:     826576 MISS:          7 MSHR_MERGE:          0
cpu0->cpu0_L1I LOAD         ACCESS:     826583 HIT:     826576 MISS:          7 MSHR_MERGE:          0
cpu0->cpu0_L1I RFO          ACCESS:          0 HIT:          0 MISS:          0 MSHR_MERGE:          0
cpu0->cpu0_L1I PREFETCH     ACCESS:          0 HIT:          0 MISS:          0 MSHR_MERGE:          0
cpu0->cpu0_L1I WRITE        ACCESS:          0 HIT:          0 MISS:          0 MSHR_MERGE:          0
cpu0->cpu0_L1I TRANSLATION  ACCESS:          0 HIT:          0 MISS:          0 MSHR_MERGE:          0
cpu0->cpu0_L1I PREFETCH REQUESTED:          0 ISSUED:          0 USEFUL:          0 USELESS:          0
cpu0->cpu0_L1I AVERAGE MISS LATENCY: 152.6 cycles
cpu0->cpu0_L1D TOTAL        ACCESS:   19107844 HIT:   15929297 MISS:    3178547 MSHR_MERGE:     651099
cpu0->cpu0_L1D LOAD         ACCESS:   12793212 HIT:   10381631 MISS:    2411581 MSHR_MERGE:     650982
cpu0->cpu0_L1D RFO          ACCESS:          0 HIT:          0 MISS:          0 MSHR_MERGE:          0
cpu0->cpu0_L1D PREFETCH     ACCESS:          0 HIT:          0 MISS:          0 MSHR_MERGE:          0
cpu0->cpu0_L1D WRITE        ACCESS:    6314632 HIT:    5547666 MISS:     766966 MSHR_MERGE:        117
cpu0->cpu0_L1D TRANSLATION  ACCESS:          0 HIT:          0 MISS:          0 MSHR_MERGE:          0
cpu0->cpu0_L1D PREFETCH REQUESTED:          0 ISSUED:          0 USEFUL:          0 USELESS:          0
cpu0->cpu0_L1D AVERAGE MISS LATENCY: 163.2 cycles
cpu0->cpu0_ITLB TOTAL        ACCESS:     824368 HIT:     824368 MISS:          0 MSHR_MERGE:          0
cpu0->cpu0_ITLB LOAD         ACCESS:     824368 HIT:     824368 MISS:          0 MSHR_MERGE:          0
cpu0->cpu0_ITLB RFO          ACCESS:          0 HIT:          0 MISS:          0 MSHR_MERGE:          0
cpu0->cpu0_ITLB PREFETCH     ACCESS:          0 HIT:          0 MISS:          0 MSHR_MERGE:          0
cpu0->cpu0_ITLB WRITE        ACCESS:          0 HIT:          0 MISS:          0 MSHR_MERGE:          0
cpu0->cpu0_ITLB TRANSLATION  ACCESS:          0 HIT:          0 MISS:          0 MSHR_MERGE:          0
cpu0->cpu0_ITLB PREFETCH REQUESTED:          0 ISSUED:          0 USEFUL:          0 USELESS:          0
cpu0->cpu0_ITLB AVERAGE MISS LATENCY: - cycles
cpu0->cpu0_DTLB TOTAL        ACCESS:   18167199 HIT:   17128628 MISS:    1038571 MSHR_MERGE:     273982
cpu0->cpu0_DTLB LOAD         ACCESS:   18167199 HIT:   17128628 MISS:    1038571 MSHR_MERGE:     273982
cpu0->cpu0_DTLB RFO          ACCESS:          0 HIT:          0 MISS:          0 MSHR_MERGE:          0
cpu0->cpu0_DTLB PREFETCH     ACCESS:          0 HIT:          0 MISS:          0 MSHR_MERGE:          0
cpu0->cpu0_DTLB WRITE        ACCESS:          0 HIT:          0 MISS:          0 MSHR_MERGE:          0
cpu0->cpu0_DTLB TRANSLATION  ACCESS:          0 HIT:          0 MISS:          0 MSHR_MERGE:          0
cpu0->cpu0_DTLB PREFETCH REQUESTED:          0 ISSUED:          0 USEFUL:          0 USELESS:          0
cpu0->cpu0_DTLB AVERAGE MISS LATENCY: 4 cycles
cpu0->LLC TOTAL        ACCESS:    3597381 HIT:     947344 MISS:    2650037 MSHR_MERGE:          0
cpu0->LLC LOAD         ACCESS:     784086 HIT:     222013 MISS:     562073 MSHR_MERGE:          0
cpu0->LLC RFO          ACCESS:     722512 HIT:     208699 MISS:     513813 MSHR_MERGE:          0
cpu0->LLC PREFETCH     ACCESS:     967963 HIT:     125631 MISS:     842332 MSHR_MERGE:          0
cpu0->LLC WRITE        ACCESS:    1122820 HIT:     391001 MISS:     731819 MSHR_MERGE:          0
cpu0->LLC TRANSLATION  ACCESS:          0 HIT:          0 MISS:          0 MSHR_MERGE:          0
cpu0->LLC PREFETCH REQUESTED:          0 ISSUED:          0 USEFUL:          0 USELESS:          0
cpu0->LLC AVERAGE MISS LATENCY: 196.4 cycles

DRAM Statistics

Channel 0 RQ ROW_BUFFER_HIT:      50139
  ROW_BUFFER_MISS:    1866857
  AVG DBUS CONGESTED CYCLE: 19.4
Channel 0 WQ ROW_BUFFER_HIT:     141881
  ROW_BUFFER_MISS:     635660
  FULL:        963
Channel 0 REFRESHES ISSUED:      14331
