[VMEM] WARNING: physical memory size is smaller than virtual memory size.
WARNING: option --warmup_instructions is deprecated. Use --warmup-instructions instead.
WARNING: option --simulation_instructions is deprecated. Use --simulation-instructions instead.

*** ChampSim Multicore Out-of-Order Simulator ***
Warmup Instructions: 20000000
Simulation Instructions: 50000000
Number of CPUs: 1
Page size: 65536

Off-chip DRAM Size: 16 GiB Channels: 1 Width: 64-bit Data Rate: 3205 MT/s
Heartbeat CPU 0 instructions: 10000001 cycles: 4248574 heartbeat IPC: 2.354 cumulative IPC: 2.354 (Simulation time: 00 hr 00 min 44 sec)
Heartbeat CPU 0 instructions: 20000002 cycles: 8477037 heartbeat IPC: 2.365 cumulative IPC: 2.359 (Simulation time: 00 hr 01 min 30 sec)
Warmup finished CPU 0 instructions: 20000002 cycles: 8477037 cumulative IPC: 2.359 (Simulation time: 00 hr 01 min 30 sec)
Warmup complete CPU 0 instructions: 20000002 cycles: 8477037 cumulative IPC: 2.359 (Simulation time: 00 hr 01 min 30 sec)
Heartbeat CPU 0 instructions: 30000005 cycles: 35696756 heartbeat IPC: 0.3674 cumulative IPC: 0.3674 (Simulation time: 00 hr 03 min 29 sec)
Heartbeat CPU 0 instructions: 40000005 cycles: 62800672 heartbeat IPC: 0.369 cumulative IPC: 0.3682 (Simulation time: 00 hr 05 min 25 sec)
Heartbeat CPU 0 instructions: 50000007 cycles: 90257550 heartbeat IPC: 0.3642 cumulative IPC: 0.3668 (Simulation time: 00 hr 07 min 26 sec)
Heartbeat CPU 0 instructions: 60000007 cycles: 117380207 heartbeat IPC: 0.3687 cumulative IPC: 0.3673 (Simulation time: 00 hr 09 min 22 sec)
Simulation finished CPU 0 instructions: 50000001 cycles: 136185961 cumulative IPC: 0.3671 (Simulation time: 00 hr 11 min 23 sec)
Simulation complete CPU 0 instructions: 50000001 cycles: 136185961 cumulative IPC: 0.3671 (Simulation time: 00 hr 11 min 23 sec)

ChampSim completed all CPUs

=== Simulation ===
CPU 0 runs traces/605.mcf_s-1152B.champsimtrace.xz

Region of Interest Statistics

CPU 0 cumulative IPC: 0.3671 instructions: 50000001 cycles: 136185961
CPU 0 Branch Prediction Accuracy: 90.19% MPKI: 24.48 Average ROB Occupancy at Mispredict: 21.09
Branch type MPKI
BRANCH_DIRECT_JUMP: 0.2057
BRANCH_INDIRECT: 0
BRANCH_CONDITIONAL: 24.27
BRANCH_DIRECT_CALL: 0
BRANCH_INDIRECT_CALL: 0.0036
BRANCH_RETURN: 2e-05

cpu0->cpu0_STLB TOTAL        ACCESS:      85897 HIT:      85044 MISS:        853 MSHR_MERGE:          0
cpu0->cpu0_STLB LOAD         ACCESS:      85897 HIT:      85044 MISS:        853 MSHR_MERGE:          0
cpu0->cpu0_STLB RFO          ACCESS:          0 HIT:          0 MISS:          0 MSHR_MERGE:          0
cpu0->cpu0_STLB PREFETCH     ACCESS:          0 HIT:          0 MISS:          0 MSHR_MERGE:          0
cpu0->cpu0_STLB WRITE        ACCESS:          0 HIT:          0 MISS:          0 MSHR_MERGE:          0
cpu0->cpu0_STLB TRANSLATION  ACCESS:          0 HIT:          0 MISS:          0 MSHR_MERGE:          0
cpu0->cpu0_STLB PREFETCH REQUESTED:          0 ISSUED:          0 USEFUL:          0 USELESS:          0
cpu0->cpu0_STLB AVERAGE MISS LATENCY: 713.7 cycles
cpu0->cpu0_L2C TOTAL        ACCESS:    5537586 HIT:    1717974 MISS:    3819612 MSHR_MERGE:     167552
cpu0->cpu0_L2C LOAD         ACCESS:    2552612 HIT:    1025658 MISS:    1526954 MSHR_MERGE:     125762
cpu0->cpu0_L2C RFO          ACCESS:     187376 HIT:      35528 MISS:     151848 MSHR_MERGE:          9
cpu0->cpu0_L2C PREFETCH     ACCESS:    2530143 HIT:     391472 MISS:    2138671 MSHR_MERGE:      41781
cpu0->cpu0_L2C WRITE        ACCESS:     265718 HIT:     265199 MISS:        519 MSHR_MERGE:          0
cpu0->cpu0_L2C TRANSLATION  ACCESS:       1737 HIT:        117 MISS:       1620 MSHR_MERGE:          0
cpu0->cpu0_L2C PREFETCH REQUESTED:    2530144 ISSUED:    2530144 USEFUL:     794160 USELESS:    1302736
cpu0->cpu0_L2C AVERAGE MISS LATENCY: 53.93 cycles
cpu0->cpu0_L1I TOTAL        ACCESS:     446097 HIT:     446097 MISS:          0 MSHR_MERGE:          0
cpu0->cpu0_L1I LOAD         ACCESS:     446097 HIT:     446097 MISS:          0 MSHR_MERGE:          0
cpu0->cpu0_L1I RFO          ACCESS:          0 HIT:          0 MISS:          0 MSHR_MERGE:          0
cpu0->cpu0_L1I PREFETCH     ACCESS:          0 HIT:          0 MISS:          0 MSHR_MERGE:          0
cpu0->cpu0_L1I WRITE        ACCESS:          0 HIT:          0 MISS:          0 MSHR_MERGE:          0
cpu0->cpu0_L1I TRANSLATION  ACCESS:          0 HIT:          0 MISS:          0 MSHR_MERGE:          0
cpu0->cpu0_L1I PREFETCH REQUESTED:          0 ISSUED:          0 USEFUL:          0 USELESS:          0
cpu0->cpu0_L1I AVERAGE MISS LATENCY: - cycles
cpu0->cpu0_L1D TOTAL        ACCESS:   18185338 HIT:   14601230 MISS:    3584108 MSHR_MERGE:     842379
cpu0->cpu0_L1D LOAD         ACCESS:   13018409 HIT:    9929946 MISS:    3088463 MSHR_MERGE:     535851
cpu0->cpu0_L1D RFO          ACCESS:          0 HIT:          0 MISS:          0 MSHR_MERGE:          0
cpu0->cpu0_L1D PREFETCH     ACCESS:          0 HIT:          0 MISS:          0 MSHR_MERGE:          0
cpu0->cpu0_L1D WRITE        ACCESS:    5165192 HIT:    4671284 MISS:     493908 MSHR_MERGE:     306528
cpu0->cpu0_L1D TRANSLATION  ACCESS:       1737 HIT:          0 MISS:       1737 MSHR_MERGE:          0
cpu0->cpu0_L1D PREFETCH REQUESTED:          0 ISSUED:          0 USEFUL:          0 USELESS:          0
cpu0->cpu0_L1D AVERAGE MISS LATENCY: 41.7 cycles
cpu0->cpu0_ITLB TOTAL        ACCESS:     388134 HIT:     388134 MISS:          0 MSHR_MERGE:          0
cpu0->cpu0_ITLB LOAD         ACCESS:     388134 HIT:     388134 MISS:          0 MSHR_MERGE:          0
cpu0->cpu0_ITLB RFO          ACCESS:          0 HIT:          0 MISS:          0 MSHR_MERGE:          0
cpu0->cpu0_ITLB PREFETCH     ACCESS:          0 HIT:          0 MISS:          0 MSHR_MERGE:          0
cpu0->cpu0_ITLB WRITE        ACCESS:          0 HIT:          0 MISS:          0 MSHR_MERGE:          0
cpu0->cpu0_ITLB TRANSLATION  ACCESS:          0 HIT:          0 MISS:          0 MSHR_MERGE:          0
cpu0->cpu0_ITLB PREFETCH REQUESTED:          0 ISSUED:          0 USEFUL:          0 USELESS:          0
cpu0->cpu0_ITLB AVERAGE MISS LATENCY: - cycles
cpu0->cpu0_DTLB TOTAL        ACCESS:   16562271 HIT:   16462384 MISS:      99887 MSHR_MERGE:      13990
cpu0->cpu0_DTLB LOAD         ACCESS:   16562271 HIT:   16462384 MISS:      99887 MSHR_MERGE:      13990
cpu0->cpu0_DTLB RFO          ACCESS:          0 HIT:          0 MISS:          0 MSHR_MERGE:          0
cpu0->cpu0_DTLB PREFETCH     ACCESS:          0 HIT:          0 MISS:          0 MSHR_MERGE:          0
cpu0->cpu0_DTLB WRITE        ACCESS:          0 HIT:          0 MISS:          0 MSHR_MERGE:          0
cpu0->cpu0_DTLB TRANSLATION  ACCESS:          0 HIT:          0 MISS:          0 MSHR_MERGE:          0
cpu0->cpu0_DTLB PREFETCH REQUESTED:          0 ISSUED:          0 USEFUL:          0 USELESS:          0
cpu0->cpu0_DTLB AVERAGE MISS LATENCY: 11.1 cycles
cpu0->LLC TOTAL        ACCESS:    3865246 HIT:    2211608 MISS:    1653638 MSHR_MERGE:          0
cpu0->LLC LOAD         ACCESS:    1401192 HIT:    1039758 MISS:     361434 MSHR_MERGE:          0
cpu0->LLC RFO          ACCESS:     151839 HIT:     144094 MISS:       7745 MSHR_MERGE:          0
cpu0->LLC PREFETCH     ACCESS:    2096890 HIT:     825158 MISS:    1271732 MSHR_MERGE:          0
cpu0->LLC WRITE        ACCESS:     213705 HIT:     202383 MISS:      11322 MSHR_MERGE:          0
cpu0->LLC TRANSLATION  ACCESS:       1620 HIT:        215 MISS:       1405 MSHR_MERGE:          0
cpu0->LLC PREFETCH REQUESTED:          0 ISSUED:          0 USEFUL:          0 USELESS:          0
cpu0->LLC AVERAGE MISS LATENCY: 143.9 cycles

DRAM Statistics

Channel 0 RQ ROW_BUFFER_HIT:     173618
  ROW_BUFFER_MISS:    1467983
  AVG DBUS CONGESTED CYCLE: 22.68
Channel 0 WQ ROW_BUFFER_HIT:       4722
  ROW_BUFFER_MISS:      11731
  FULL:          0
Channel 0 REFRESHES ISSUED:      11349
