[VMEM] WARNING: physical memory size is smaller than virtual memory size.
WARNING: option --warmup_instructions is deprecated. Use --warmup-instructions instead.
WARNING: option --simulation_instructions is deprecated. Use --simulation-instructions instead.

*** ChampSim Multicore Out-of-Order Simulator ***
Warmup Instructions: 20000000
Simulation Instructions: 50000000
Number of CPUs: 1
Page size: 65536

Off-chip DRAM Size: 16 GiB Channels: 1 Width: 64-bit Data Rate: 3205 MT/s
Heartbeat CPU 0 instructions: 10000003 cycles: 5793331 heartbeat IPC: 1.726 cumulative IPC: 1.726 (Simulation time: 00 hr 00 min 50 sec)
Heartbeat CPU 0 instructions: 20000003 cycles: 11617284 heartbeat IPC: 1.717 cumulative IPC: 1.722 (Simulation time: 00 hr 01 min 47 sec)
Warmup finished CPU 0 instructions: 20000003 cycles: 11617284 cumulative IPC: 1.722 (Simulation time: 00 hr 01 min 47 sec)
Warmup complete CPU 0 instructions: 20000003 cycles: 11617284 cumulative IPC: 1.722 (Simulation time: 00 hr 01 min 47 sec)
Heartbeat CPU 0 instructions: 30000005 cycles: 28854576 heartbeat IPC: 0.5801 cumulative IPC: 0.5801 (Simulation time: 00 hr 03 min 34 sec)
Heartbeat CPU 0 instructions: 40000008 cycles: 38291459 heartbeat IPC: 1.06 cumulative IPC: 0.7498 (Simulation time: 00 hr 04 min 38 sec)
Heartbeat CPU 0 instructions: 50000008 cycles: 51739998 heartbeat IPC: 0.7436 cumulative IPC: 0.7477 (Simulation time: 00 hr 06 min 04 sec)
Heartbeat CPU 0 instructions: 60000010 cycles: 73105121 heartbeat IPC: 0.4681 cumulative IPC: 0.6505 (Simulation time: 00 hr 08 min 14 sec)
Simulation finished CPU 0 instructions: 50000000 cycles: 74518249 cumulative IPC: 0.671 (Simulation time: 00 hr 09 min 37 sec)
Simulation complete CPU 0 instructions: 50000000 cycles: 74518249 cumulative IPC: 0.671 (Simulation time: 00 hr 09 min 37 sec)

ChampSim completed all CPUs

=== Simulation ===
CPU 0 runs traces/429.mcf-217B.champsimtrace.xz

Region of Interest Statistics

CPU 0 cumulative IPC: 0.671 instructions: 50000000 cycles: 74518249
CPU 0 Branch Prediction Accuracy: 98.95% MPKI: 1.194 Average ROB Occupancy at Mispredict: 122.4
Branch type MPKI
BRANCH_DIRECT_JUMP: 0
BRANCH_INDIRECT: 0
BRANCH_CONDITIONAL: 1.194
BRANCH_DIRECT_CALL: 0
BRANCH_INDIRECT_CALL: 0
BRANCH_RETURN: 0

cpu0->cpu0_STLB TOTAL        ACCESS:      16239 HIT:      15952 MISS:        287 MSHR_MERGE:          0
cpu0->cpu0_STLB LOAD         ACCESS:      16239 HIT:      15952 MISS:        287 MSHR_MERGE:          0
cpu0->cpu0_STLB RFO          ACCESS:          0 HIT:          0 MISS:          0 MSHR_MERGE:          0
cpu0->cpu0_STLB PREFETCH     ACCESS:          0 HIT:          0 MISS:          0 MSHR_MERGE:          0
cpu0->cpu0_STLB WRITE        ACCESS:          0 HIT:          0 MISS:          0 MSHR_MERGE:          0
cpu0->cpu0_STLB TRANSLATION  ACCESS:          0 HIT:          0 MISS:          0 MSHR_MERGE:          0
cpu0->cpu0_STLB PREFETCH REQUESTED:          0 ISSUED:          0 USEFUL:          0 USELESS:          0
cpu0->cpu0_STLB AVERAGE MISS LATENCY: 704 cycles
cpu0->cpu0_L2C TOTAL        ACCESS:    9121816 HIT:    4467212 MISS:    4654604 MSHR_MERGE:    1939258
cpu0->cpu0_L2C LOAD         ACCESS:    2598389 HIT:    1947369 MISS:     651020 MSHR_MERGE:     519533
cpu0->cpu0_L2C RFO          ACCESS:       1564 HIT:       1438 MISS:        126 MSHR_MERGE:          1
cpu0->cpu0_L2C PREFETCH     ACCESS:    6425099 HIT:    2422860 MISS:    4002239 MSHR_MERGE:    1419724
cpu0->cpu0_L2C WRITE        ACCESS:      96196 HIT:      95462 MISS:        734 MSHR_MERGE:          0
cpu0->cpu0_L2C TRANSLATION  ACCESS:        568 HIT:         83 MISS:        485 MSHR_MERGE:          0
cpu0->cpu0_L2C PREFETCH REQUESTED:    6425248 ISSUED:    6425086 USEFUL:    2447337 USELESS:     135168
cpu0->cpu0_L2C AVERAGE MISS LATENCY: 97.76 cycles
cpu0->cpu0_L1I TOTAL        ACCESS:    9340730 HIT:    9340730 MISS:          0 MSHR_MERGE:          0
cpu0->cpu0_L1I LOAD         ACCESS:    9340730 HIT:    9340730 MISS:          0 MSHR_MERGE:          0
cpu0->cpu0_L1I RFO          ACCESS:          0 HIT:          0 MISS:          0 MSHR_MERGE:          0
cpu0->cpu0_L1I PREFETCH     ACCESS:          0 HIT:          0 MISS:          0 MSHR_MERGE:          0
cpu0->cpu0_L1I WRITE        ACCESS:          0 HIT:          0 MISS:          0 MSHR_MERGE:          0
cpu0->cpu0_L1I TRANSLATION  ACCESS:          0 HIT:          0 MISS:          0 MSHR_MERGE:          0
cpu0->cpu0_L1I PREFETCH REQUESTED:          0 ISSUED:          0 USEFUL:          0 USELESS:          0
cpu0->cpu0_L1I AVERAGE MISS LATENCY: - cycles
cpu0->cpu0_L1D TOTAL        ACCESS:   16632989 HIT:   13939796 MISS:    2693193 MSHR_MERGE:      92610
cpu0->cpu0_L1D LOAD         ACCESS:    8631484 HIT:    5942485 MISS:    2688999 MSHR_MERGE:      90548
cpu0->cpu0_L1D RFO          ACCESS:          0 HIT:          0 MISS:          0 MSHR_MERGE:          0
cpu0->cpu0_L1D PREFETCH     ACCESS:          0 HIT:          0 MISS:          0 MSHR_MERGE:          0
cpu0->cpu0_L1D WRITE        ACCESS:    8000928 HIT:    7997302 MISS:       3626 MSHR_MERGE:       2062
cpu0->cpu0_L1D TRANSLATION  ACCESS:        577 HIT:          9 MISS:        568 MSHR_MERGE:          0
cpu0->cpu0_L1D PREFETCH REQUESTED:          0 ISSUED:          0 USEFUL:          0 USELESS:          0
cpu0->cpu0_L1D AVERAGE MISS LATENCY: 32.82 cycles
cpu0->cpu0_ITLB TOTAL        ACCESS:    8162645 HIT:    8162645 MISS:          0 MSHR_MERGE:          0
cpu0->cpu0_ITLB LOAD         ACCESS:    8162645 HIT:    8162645 MISS:          0 MSHR_MERGE:          0
cpu0->cpu0_ITLB RFO          ACCESS:          0 HIT:          0 MISS:          0 MSHR_MERGE:          0
cpu0->cpu0_ITLB PREFETCH     ACCESS:          0 HIT:          0 MISS:          0 MSHR_MERGE:          0
cpu0->cpu0_ITLB WRITE        ACCESS:          0 HIT:          0 MISS:          0 MSHR_MERGE:          0
cpu0->cpu0_ITLB TRANSLATION  ACCESS:          0 HIT:          0 MISS:          0 MSHR_MERGE:          0
cpu0->cpu0_ITLB PREFETCH REQUESTED:          0 ISSUED:          0 USEFUL:          0 USELESS:          0
cpu0->cpu0_ITLB AVERAGE MISS LATENCY: - cycles
cpu0->cpu0_DTLB TOTAL        ACCESS:   14927287 HIT:   14904512 MISS:      22775 MSHR_MERGE:       6536
cpu0->cpu0_DTLB LOAD         ACCESS:   14927287 HIT:   14904512 MISS:      22775 MSHR_MERGE:       6536
cpu0->cpu0_DTLB RFO          ACCESS:          0 HIT:          0 MISS:          0 MSHR_MERGE:          0
cpu0->cpu0_DTLB PREFETCH     ACCESS:          0 HIT:          0 MISS:          0 MSHR_MERGE:          0
cpu0->cpu0_DTLB WRITE        ACCESS:          0 HIT:          0 MISS:          0 MSHR_MERGE:          0
cpu0->cpu0_DTLB TRANSLATION  ACCESS:          0 HIT:          0 MISS:          0 MSHR_MERGE:          0
cpu0->cpu0_DTLB PREFETCH REQUESTED:          0 ISSUED:          0 USEFUL:          0 USELESS:          0
cpu0->cpu0_DTLB AVERAGE MISS LATENCY: 16.46 cycles
cpu0->LLC TOTAL        ACCESS:    2795232 HIT:     685162 MISS:    2110070 MSHR_MERGE:          0
cpu0->LLC LOAD         ACCESS:     131487 HIT:       8799 MISS:     122688 MSHR_MERGE:          0
cpu0->LLC RFO          ACCESS:        125 HIT:         95 MISS:         30 MSHR_MERGE:          0
cpu0->LLC PREFETCH     ACCESS:    2582514 HIT:     655967 MISS:    1926547 MSHR_MERGE:          0
cpu0->LLC WRITE        ACCESS:      80621 HIT:      20291 MISS:      60330 MSHR_MERGE:          0
cpu0->LLC TRANSLATION  ACCESS:        485 HIT:         10 MISS:        475 MSHR_MERGE:          0
cpu0->LLC PREFETCH REQUESTED:          0 ISSUED:          0 USEFUL:          0 USELESS:          0
cpu0->LLC AVERAGE MISS LATENCY: 105.3 cycles

DRAM Statistics

Channel 0 RQ ROW_BUFFER_HIT:     236586
  ROW_BUFFER_MISS:    1812755
  AVG DBUS CONGESTED CYCLE: 9.079
Channel 0 WQ ROW_BUFFER_HIT:      14321
  ROW_BUFFER_MISS:      61284
  FULL:          0
Channel 0 REFRESHES ISSUED:       6209
