[VMEM] WARNING: physical memory size is smaller than virtual memory size.
WARNING: option --warmup_instructions is deprecated. Use --warmup-instructions instead.
WARNING: option --simulation_instructions is deprecated. Use --simulation-instructions instead.

*** ChampSim Multicore Out-of-Order Simulator ***
Warmup Instructions: 20000000
Simulation Instructions: 50000000
Number of CPUs: 1
Page size: 8192

Off-chip DRAM Size: 16 GiB Channels: 1 Width: 64-bit Data Rate: 3205 MT/s
Heartbeat CPU 0 instructions: 10000000 cycles: 4304086 heartbeat IPC: 2.323 cumulative IPC: 2.323 (Simulation time: 00 hr 00 min 42 sec)
Heartbeat CPU 0 instructions: 20000000 cycles: 8600012 heartbeat IPC: 2.328 cumulative IPC: 2.326 (Simulation time: 00 hr 01 min 25 sec)
Warmup finished CPU 0 instructions: 20000000 cycles: 8600012 cumulative IPC: 2.326 (Simulation time: 00 hr 01 min 25 sec)
Warmup complete CPU 0 instructions: 20000000 cycles: 8600012 cumulative IPC: 2.326 (Simulation time: 00 hr 01 min 25 sec)
Heartbeat CPU 0 instructions: 30000003 cycles: 17150295 heartbeat IPC: 1.17 cumulative IPC: 1.17 (Simulation time: 00 hr 02 min 29 sec)
Heartbeat CPU 0 instructions: 40000003 cycles: 25712786 heartbeat IPC: 1.168 cumulative IPC: 1.169 (Simulation time: 00 hr 03 min 33 sec)
Heartbeat CPU 0 instructions: 50000003 cycles: 34269875 heartbeat IPC: 1.169 cumulative IPC: 1.169 (Simulation time: 00 hr 04 min 38 sec)
Heartbeat CPU 0 instructions: 60000005 cycles: 42853254 heartbeat IPC: 1.165 cumulative IPC: 1.168 (Simulation time: 00 hr 05 min 44 sec)
Simulation finished CPU 0 instructions: 50000000 cycles: 42804613 cumulative IPC: 1.168 (Simulation time: 00 hr 06 min 48 sec)
Simulation complete CPU 0 instructions: 50000000 cycles: 42804613 cumulative IPC: 1.168 (Simulation time: 00 hr 06 min 48 sec)

ChampSim completed all CPUs

=== Simulation ===
CPU 0 runs traces/603.bwaves_s-1740B.champsimtrace.xz

Region of Interest Statistics

CPU 0 cumulative IPC: 1.168 instructions: 50000000 cycles: 42804613
CPU 0 Branch Prediction Accuracy: 99.97% MPKI: 0.00734 Average ROB Occupancy at Mispredict: 189.9
Branch type MPKI
BRANCH_DIRECT_JUMP: 0
BRANCH_INDIRECT: 0
BRANCH_CONDITIONAL: 0.00734
BRANCH_DIRECT_CALL: 0
BRANCH_INDIRECT_CALL: 0
BRANCH_RETURN: 0

cpu0->cpu0_STLB TOTAL        ACCESS:       7425 HIT:        365 MISS:       7060 MSHR_MERGE:          0
cpu0->cpu0_STLB LOAD         ACCESS:       7425 HIT:        365 MISS:       7060 MSHR_MERGE:          0
cpu0->cpu0_STLB RFO          ACCESS:          0 HIT:          0 MISS:          0 MSHR_MERGE:          0
cpu0->cpu0_STLB PREFETCH     ACCESS:          0 HIT:          0 MISS:          0 MSHR_MERGE:          0
cpu0->cpu0_STLB WRITE        ACCESS:          0 HIT:          0 MISS:          0 MSHR_MERGE:          0
cpu0->cpu0_STLB TRANSLATION  ACCESS:          0 HIT:          0 MISS:          0 MSHR_MERGE:          0
cpu0->cpu0_STLB PREFETCH REQUESTED:          0 ISSUED:          0 USEFUL:          0 USELESS:          0
cpu0->cpu0_STLB AVERAGE MISS LATENCY: 689.8 cycles
cpu0->cpu0_L2C TOTAL        ACCESS:    3079013 HIT:    1813722 MISS:    1265291 MSHR_MERGE:     296480
cpu0->cpu0_L2C LOAD         ACCESS:    1019757 HIT:     876239 MISS:     143518 MSHR_MERGE:     123752
cpu0->cpu0_L2C RFO          ACCESS:      32755 HIT:       8393 MISS:      24362 MSHR_MERGE:          0
cpu0->cpu0_L2C PREFETCH     ACCESS:    1976516 HIT:     889579 MISS:    1086937 MSHR_MERGE:     172728
cpu0->cpu0_L2C WRITE        ACCESS:      36472 HIT:      36434 MISS:         38 MSHR_MERGE:          0
cpu0->cpu0_L2C TRANSLATION  ACCESS:      13513 HIT:       3077 MISS:      10436 MSHR_MERGE:          0
cpu0->cpu0_L2C PREFETCH REQUESTED:    2024232 ISSUED:    1976508 USEFUL:     913903 USELESS:        307
cpu0->cpu0_L2C AVERAGE MISS LATENCY: 133.8 cycles
cpu0->cpu0_L1I TOTAL        ACCESS:   12003050 HIT:   12003050 MISS:          0 MSHR_MERGE:          0
cpu0->cpu0_L1I LOAD         ACCESS:   12003050 HIT:   12003050 MISS:          0 MSHR_MERGE:          0
cpu0->cpu0_L1I RFO          ACCESS:          0 HIT:          0 MISS:          0 MSHR_MERGE:          0
cpu0->cpu0_L1I PREFETCH     ACCESS:          0 HIT:          0 MISS:          0 MSHR_MERGE:          0
cpu0->cpu0_L1I WRITE        ACCESS:          0 HIT:          0 MISS:          0 MSHR_MERGE:          0
cpu0->cpu0_L1I TRANSLATION  ACCESS:          0 HIT:          0 MISS:          0 MSHR_MERGE:          0
cpu0->cpu0_L1I PREFETCH REQUESTED:          0 ISSUED:          0 USEFUL:          0 USELESS:          0
cpu0->cpu0_L1I AVERAGE MISS LATENCY: - cycles
cpu0->cpu0_L1D TOTAL        ACCESS:   17005244 HIT:   15861573 MISS:    1143671 MSHR_MERGE:      77487
cpu0->cpu0_L1D LOAD         ACCESS:   14174495 HIT:   13103085 MISS:    1071410 MSHR_MERGE:      51585
cpu0->cpu0_L1D RFO          ACCESS:          0 HIT:          0 MISS:          0 MSHR_MERGE:          0
cpu0->cpu0_L1D PREFETCH     ACCESS:          0 HIT:          0 MISS:          0 MSHR_MERGE:          0
cpu0->cpu0_L1D WRITE        ACCESS:    2816699 HIT:    2758186 MISS:      58513 MSHR_MERGE:      25667
cpu0->cpu0_L1D TRANSLATION  ACCESS:      14050 HIT:        302 MISS:      13748 MSHR_MERGE:        235
cpu0->cpu0_L1D PREFETCH REQUESTED:          0 ISSUED:          0 USEFUL:          0 USELESS:          0
cpu0->cpu0_L1D AVERAGE MISS LATENCY: 38.96 cycles
cpu0->cpu0_ITLB TOTAL        ACCESS:   10869006 HIT:   10869006 MISS:          0 MSHR_MERGE:          0
cpu0->cpu0_ITLB LOAD         ACCESS:   10869006 HIT:   10869006 MISS:          0 MSHR_MERGE:          0
cpu0->cpu0_ITLB RFO          ACCESS:          0 HIT:          0 MISS:          0 MSHR_MERGE:          0
cpu0->cpu0_ITLB PREFETCH     ACCESS:          0 HIT:          0 MISS:          0 MSHR_MERGE:          0
cpu0->cpu0_ITLB WRITE        ACCESS:          0 HIT:          0 MISS:          0 MSHR_MERGE:          0
cpu0->cpu0_ITLB TRANSLATION  ACCESS:          0 HIT:          0 MISS:          0 MSHR_MERGE:          0
cpu0->cpu0_ITLB PREFETCH REQUESTED:          0 ISSUED:          0 USEFUL:          0 USELESS:          0
cpu0->cpu0_ITLB AVERAGE MISS LATENCY: - cycles
cpu0->cpu0_DTLB TOTAL        ACCESS:   16349332 HIT:   16336621 MISS:      12711 MSHR_MERGE:       5286
cpu0->cpu0_DTLB LOAD         ACCESS:   16349332 HIT:   16336621 MISS:      12711 MSHR_MERGE:       5286
cpu0->cpu0_DTLB RFO          ACCESS:          0 HIT:          0 MISS:          0 MSHR_MERGE:          0
cpu0->cpu0_DTLB PREFETCH     ACCESS:          0 HIT:          0 MISS:          0 MSHR_MERGE:          0
cpu0->cpu0_DTLB WRITE        ACCESS:          0 HIT:          0 MISS:          0 MSHR_MERGE:          0
cpu0->cpu0_DTLB TRANSLATION  ACCESS:          0 HIT:          0 MISS:          0 MSHR_MERGE:          0
cpu0->cpu0_DTLB PREFETCH REQUESTED:          0 ISSUED:          0 USEFUL:          0 USELESS:          0
cpu0->cpu0_DTLB AVERAGE MISS LATENCY: 660.8 cycles
cpu0->LLC TOTAL        ACCESS:     993278 HIT:       4655 MISS:     988623 MSHR_MERGE:          0
cpu0->LLC LOAD         ACCESS:      19766 HIT:        263 MISS:      19503 MSHR_MERGE:          0
cpu0->LLC RFO          ACCESS:      24362 HIT:          0 MISS:      24362 MSHR_MERGE:          0
cpu0->LLC PREFETCH     ACCESS:     914209 HIT:       1830 MISS:     912379 MSHR_MERGE:          0
cpu0->LLC WRITE        ACCESS:      24505 HIT:       2557 MISS:      21948 MSHR_MERGE:          0
cpu0->LLC TRANSLATION  ACCESS:      10436 HIT:          5 MISS:      10431 MSHR_MERGE:          0
cpu0->LLC PREFETCH REQUESTED:          0 ISSUED:          0 USEFUL:          0 USELESS:          0
cpu0->LLC AVERAGE MISS LATENCY: 122.7 cycles

DRAM Statistics

Channel 0 RQ ROW_BUFFER_HIT:        752
  ROW_BUFFER_MISS:     965923
  AVG DBUS CONGESTED CYCLE: 4.03
Channel 0 WQ ROW_BUFFER_HIT:       1923
  ROW_BUFFER_MISS:      20058
  FULL:          0
Channel 0 REFRESHES ISSUED:       3567
