[VMEM] WARNING: physical memory size is smaller than virtual memory size.
WARNING: option --warmup_instructions is deprecated. Use --warmup-instructions instead.
WARNING: option --simulation_instructions is deprecated. Use --simulation-instructions instead.

*** ChampSim Multicore Out-of-Order Simulator ***
Warmup Instructions: 20000000
Simulation Instructions: 50000000
Number of CPUs: 1
Page size: 8192

Off-chip DRAM Size: 16 GiB Channels: 1 Width: 64-bit Data Rate: 3205 MT/s
Heartbeat CPU 0 instructions: 10000000 cycles: 6977750 heartbeat IPC: 1.433 cumulative IPC: 1.433 (Simulation time: 00 hr 00 min 57 sec)
Heartbeat CPU 0 instructions: 20000001 cycles: 11048567 heartbeat IPC: 2.457 cumulative IPC: 1.81 (Simulation time: 00 hr 01 min 38 sec)
Warmup finished CPU 0 instructions: 20000001 cycles: 11048567 cumulative IPC: 1.81 (Simulation time: 00 hr 01 min 38 sec)
Warmup complete CPU 0 instructions: 20000001 cycles: 11048567 cumulative IPC: 1.81 (Simulation time: 00 hr 01 min 38 sec)
Heartbeat CPU 0 instructions: 30000003 cycles: 51786597 heartbeat IPC: 0.2455 cumulative IPC: 0.2455 (Simulation time: 00 hr 04 min 29 sec)
Heartbeat CPU 0 instructions: 40000005 cycles: 92637310 heartbeat IPC: 0.2448 cumulative IPC: 0.2451 (Simulation time: 00 hr 07 min 19 sec)
Heartbeat CPU 0 instructions: 50000006 cycles: 133169992 heartbeat IPC: 0.2467 cumulative IPC: 0.2457 (Simulation time: 00 hr 10 min 14 sec)
Heartbeat CPU 0 instructions: 60000007 cycles: 173927076 heartbeat IPC: 0.2454 cumulative IPC: 0.2456 (Simulation time: 00 hr 13 min 03 sec)
Simulation finished CPU 0 instructions: 50000002 cycles: 203324152 cumulative IPC: 0.2459 (Simulation time: 00 hr 15 min 50 sec)
Simulation complete CPU 0 instructions: 50000002 cycles: 203324152 cumulative IPC: 0.2459 (Simulation time: 00 hr 15 min 50 sec)

ChampSim completed all CPUs

=== Simulation ===
CPU 0 runs traces/473.astar-359B.champsimtrace.xz

Region of Interest Statistics

CPU 0 cumulative IPC: 0.2459 instructions: 50000002 cycles: 203324152
CPU 0 Branch Prediction Accuracy: 93.2% MPKI: 13.43 Average ROB Occupancy at Mispredict: 44.39
Branch type MPKI
BRANCH_DIRECT_JUMP: 0
BRANCH_INDIRECT: 0
BRANCH_CONDITIONAL: 13.42
BRANCH_DIRECT_CALL: 0
BRANCH_INDIRECT_CALL: 0.00054
BRANCH_RETURN: 0

cpu0->cpu0_STLB TOTAL        ACCESS:    1275610 HIT:     889352 MISS:     386258 MSHR_MERGE:          0
cpu0->cpu0_STLB LOAD         ACCESS:    1275610 HIT:     889352 MISS:     386258 MSHR_MERGE:          0
cpu0->cpu0_STLB RFO          ACCESS:          0 HIT:          0 MISS:          0 MSHR_MERGE:          0
cpu0->cpu0_STLB PREFETCH     ACCESS:          0 HIT:          0 MISS:          0 MSHR_MERGE:          0
cpu0->cpu0_STLB WRITE        ACCESS:          0 HIT:          0 MISS:          0 MSHR_MERGE:          0
cpu0->cpu0_STLB TRANSLATION  ACCESS:          0 HIT:          0 MISS:          0 MSHR_MERGE:          0
cpu0->cpu0_STLB PREFETCH REQUESTED:          0 ISSUED:          0 USEFUL:          0 USELESS:          0
cpu0->cpu0_STLB AVERAGE MISS LATENCY: 446.8 cycles
cpu0->cpu0_L2C TOTAL        ACCESS:    6153546 HIT:    2859796 MISS:    3293750 MSHR_MERGE:      79110
cpu0->cpu0_L2C LOAD         ACCESS:    1775426 HIT:     932767 MISS:     842659 MSHR_MERGE:      27196
cpu0->cpu0_L2C RFO          ACCESS:     767629 HIT:      40383 MISS:     727246 MSHR_MERGE:          0
cpu0->cpu0_L2C PREFETCH     ACCESS:    1792398 HIT:     712416 MISS:    1079982 MSHR_MERGE:      51914
cpu0->cpu0_L2C WRITE        ACCESS:    1168863 HIT:    1168505 MISS:        358 MSHR_MERGE:          0
cpu0->cpu0_L2C TRANSLATION  ACCESS:     649230 HIT:       5725 MISS:     643505 MSHR_MERGE:          0
cpu0->cpu0_L2C PREFETCH REQUESTED:    1792398 ISSUED:    1792398 USEFUL:     321297 USELESS:     708041
cpu0->cpu0_L2C AVERAGE MISS LATENCY: 176.6 cycles
cpu0->cpu0_L1I TOTAL        ACCESS:     831285 HIT:     831278 MISS:          7 MSHR_MERGE:          0
cpu0->cpu0_L1I LOAD         ACCESS:     831285 HIT:     831278 MISS:          7 MSHR_MERGE:          0
cpu0->cpu0_L1I RFO          ACCESS:          0 HIT:          0 MISS:          0 MSHR_MERGE:          0
cpu0->cpu0_L1I PREFETCH     ACCESS:          0 HIT:          0 MISS:          0 MSHR_MERGE:          0
cpu0->cpu0_L1I WRITE        ACCESS:          0 HIT:          0 MISS:          0 MSHR_MERGE:          0
cpu0->cpu0_L1I TRANSLATION  ACCESS:          0 HIT:          0 MISS:          0 MSHR_MERGE:          0
cpu0->cpu0_L1I PREFETCH REQUESTED:          0 ISSUED:          0 USEFUL:          0 USELESS:          0
cpu0->cpu0_L1I AVERAGE MISS LATENCY: 129.3 cycles
cpu0->cpu0_L1D TOTAL        ACCESS:   19853375 HIT:   15978664 MISS:    3874711 MSHR_MERGE:     682429
cpu0->cpu0_L1D LOAD         ACCESS:   12762639 HIT:   10398101 MISS:    2364538 MSHR_MERGE:     589117
cpu0->cpu0_L1D RFO          ACCESS:          0 HIT:          0 MISS:          0 MSHR_MERGE:          0
cpu0->cpu0_L1D PREFETCH     ACCESS:          0 HIT:          0 MISS:          0 MSHR_MERGE:          0
cpu0->cpu0_L1D WRITE        ACCESS:    6314342 HIT:    5546614 MISS:     767728 MSHR_MERGE:         97
cpu0->cpu0_L1D TRANSLATION  ACCESS:     776394 HIT:      33949 MISS:     742445 MSHR_MERGE:      93215
cpu0->cpu0_L1D PREFETCH REQUESTED:          0 ISSUED:          0 USEFUL:          0 USELESS:          0
cpu0->cpu0_L1D AVERAGE MISS LATENCY: 132.4 cycles
cpu0->cpu0_ITLB TOTAL        ACCESS:     829021 HIT:     829021 MISS:          0 MSHR_MERGE:          0
cpu0->cpu0_ITLB LOAD         ACCESS:     829021 HIT:     829021 MISS:          0 MSHR_MERGE:          0
cpu0->cpu0_ITLB RFO          ACCESS:          0 HIT:          0 MISS:          0 MSHR_MERGE:          0
cpu0->cpu0_ITLB PREFETCH     ACCESS:          0 HIT:          0 MISS:          0 MSHR_MERGE:          0
cpu0->cpu0_ITLB WRITE        ACCESS:          0 HIT:          0 MISS:          0 MSHR_MERGE:          0
cpu0->cpu0_ITLB TRANSLATION  ACCESS:          0 HIT:          0 MISS:          0 MSHR_MERGE:          0
cpu0->cpu0_ITLB PREFETCH REQUESTED:          0 ISSUED:          0 USEFUL:          0 USELESS:          0
cpu0->cpu0_ITLB AVERAGE MISS LATENCY: - cycles
cpu0->cpu0_DTLB TOTAL        ACCESS:   18142320 HIT:   16263683 MISS:    1878637 MSHR_MERGE:     603027
cpu0->cpu0_DTLB LOAD         ACCESS:   18142320 HIT:   16263683 MISS:    1878637 MSHR_MERGE:     603027
cpu0->cpu0_DTLB RFO          ACCESS:          0 HIT:          0 MISS:          0 MSHR_MERGE:          0
cpu0->cpu0_DTLB PREFETCH     ACCESS:          0 HIT:          0 MISS:          0 MSHR_MERGE:          0
cpu0->cpu0_DTLB WRITE        ACCESS:          0 HIT:          0 MISS:          0 MSHR_MERGE:          0
cpu0->cpu0_DTLB TRANSLATION  ACCESS:          0 HIT:          0 MISS:          0 MSHR_MERGE:          0
cpu0->cpu0_DTLB PREFETCH REQUESTED:          0 ISSUED:          0 USEFUL:          0 USELESS:          0
cpu0->cpu0_DTLB AVERAGE MISS LATENCY: 139.6 cycles
cpu0->LLC TOTAL        ACCESS:    4344297 HIT:    1883875 MISS:    2460422 MSHR_MERGE:          0
cpu0->LLC LOAD         ACCESS:     815461 HIT:     391816 MISS:     423645 MSHR_MERGE:          0
cpu0->LLC RFO          ACCESS:     727245 HIT:     327144 MISS:     400101 MSHR_MERGE:          0
cpu0->LLC PREFETCH     ACCESS:    1028066 HIT:     284658 MISS:     743408 MSHR_MERGE:          0
cpu0->LLC WRITE        ACCESS:    1130020 HIT:     738760 MISS:     391260 MSHR_MERGE:          0
cpu0->LLC TRANSLATION  ACCESS:     643505 HIT:     141497 MISS:     502008 MSHR_MERGE:          0
cpu0->LLC PREFETCH REQUESTED:          0 ISSUED:          0 USEFUL:          0 USELESS:          0
cpu0->LLC AVERAGE MISS LATENCY: 206.2 cycles

DRAM Statistics

Channel 0 RQ ROW_BUFFER_HIT:      52858
  ROW_BUFFER_MISS:    2015941
  AVG DBUS CONGESTED CYCLE: 19.23
Channel 0 WQ ROW_BUFFER_HIT:      92427
  ROW_BUFFER_MISS:     497782
  FULL:          0
Channel 0 REFRESHES ISSUED:      16944
