[VMEM] WARNING: physical memory size is smaller than virtual memory size.
WARNING: option --warmup_instructions is deprecated. Use --warmup-instructions instead.
WARNING: option --simulation_instructions is deprecated. Use --simulation-instructions instead.

*** ChampSim Multicore Out-of-Order Simulator ***
Warmup Instructions: 20000000
Simulation Instructions: 50000000
Number of CPUs: 1
Page size: 8192

Off-chip DRAM Size: 16 GiB Channels: 1 Width: 64-bit Data Rate: 3205 MT/s
Heartbeat CPU 0 instructions: 10000001 cycles: 8475833 heartbeat IPC: 1.18 cumulative IPC: 1.18 (Simulation time: 00 hr 01 min 29 sec)
Warmup finished CPU 0 instructions: 20000000 cycles: 15760832 cumulative IPC: 1.269 (Simulation time: 00 hr 02 min 52 sec)
Warmup complete CPU 0 instructions: 20000000 cycles: 15760832 cumulative IPC: 1.269 (Simulation time: 00 hr 02 min 52 sec)
Heartbeat CPU 0 instructions: 20000002 cycles: 15760833 heartbeat IPC: 1.373 cumulative IPC: 2 (Simulation time: 00 hr 02 min 52 sec)
Heartbeat CPU 0 instructions: 30000002 cycles: 45460883 heartbeat IPC: 0.3367 cumulative IPC: 0.3367 (Simulation time: 00 hr 06 min 03 sec)
Heartbeat CPU 0 instructions: 40000002 cycles: 75436989 heartbeat IPC: 0.3336 cumulative IPC: 0.3351 (Simulation time: 00 hr 09 min 14 sec)
Heartbeat CPU 0 instructions: 50000002 cycles: 105335187 heartbeat IPC: 0.3345 cumulative IPC: 0.3349 (Simulation time: 00 hr 12 min 20 sec)
Heartbeat CPU 0 instructions: 60000003 cycles: 133557283 heartbeat IPC: 0.3543 cumulative IPC: 0.3396 (Simulation time: 00 hr 15 min 22 sec)
Simulation finished CPU 0 instructions: 50000001 cycles: 145235790 cumulative IPC: 0.3443 (Simulation time: 00 hr 18 min 19 sec)
Simulation complete CPU 0 instructions: 50000001 cycles: 145235790 cumulative IPC: 0.3443 (Simulation time: 00 hr 18 min 19 sec)

ChampSim completed all CPUs

=== Simulation ===
CPU 0 runs traces/620.omnetpp_s-874B.champsimtrace.xz

Region of Interest Statistics

CPU 0 cumulative IPC: 0.3443 instructions: 50000001 cycles: 145235790
CPU 0 Branch Prediction Accuracy: 96.16% MPKI: 7.99 Average ROB Occupancy at Mispredict: 56.42
Branch type MPKI
BRANCH_DIRECT_JUMP: 0.9384
BRANCH_INDIRECT: 0.1208
BRANCH_CONDITIONAL: 5.805
BRANCH_DIRECT_CALL: 0.00236
BRANCH_INDIRECT_CALL: 0.7298
BRANCH_RETURN: 0.3936

cpu0->cpu0_STLB TOTAL        ACCESS:     830452 HIT:     693360 MISS:     137092 MSHR_MERGE:          0
cpu0->cpu0_STLB LOAD         ACCESS:     830452 HIT:     693360 MISS:     137092 MSHR_MERGE:          0
cpu0->cpu0_STLB RFO          ACCESS:          0 HIT:          0 MISS:          0 MSHR_MERGE:          0
cpu0->cpu0_STLB PREFETCH     ACCESS:          0 HIT:          0 MISS:          0 MSHR_MERGE:          0
cpu0->cpu0_STLB WRITE        ACCESS:          0 HIT:          0 MISS:          0 MSHR_MERGE:          0
cpu0->cpu0_STLB TRANSLATION  ACCESS:          0 HIT:          0 MISS:          0 MSHR_MERGE:          0
cpu0->cpu0_STLB PREFETCH REQUESTED:          0 ISSUED:          0 USEFUL:          0 USELESS:          0
cpu0->cpu0_STLB AVERAGE MISS LATENCY: 324.5 cycles
cpu0->cpu0_L2C TOTAL        ACCESS:    1970345 HIT:     877598 MISS:    1092747 MSHR_MERGE:       2188
cpu0->cpu0_L2C LOAD         ACCESS:     933056 HIT:     288591 MISS:     644465 MSHR_MERGE:         32
cpu0->cpu0_L2C RFO          ACCESS:     139379 HIT:      31365 MISS:     108014 MSHR_MERGE:          0
cpu0->cpu0_L2C PREFETCH     ACCESS:      98237 HIT:      30787 MISS:      67450 MSHR_MERGE:       2156
cpu0->cpu0_L2C WRITE        ACCESS:     506164 HIT:     503866 MISS:       2298 MSHR_MERGE:          0
cpu0->cpu0_L2C TRANSLATION  ACCESS:     293509 HIT:      22989 MISS:     270520 MSHR_MERGE:          0
cpu0->cpu0_L2C PREFETCH REQUESTED:      98237 ISSUED:      98237 USEFUL:      14670 USELESS:      50571
cpu0->cpu0_L2C AVERAGE MISS LATENCY: 137 cycles
cpu0->cpu0_L1I TOTAL        ACCESS:   12468468 HIT:   12427667 MISS:      40801 MSHR_MERGE:      22317
cpu0->cpu0_L1I LOAD         ACCESS:   12468468 HIT:   12427667 MISS:      40801 MSHR_MERGE:      22317
cpu0->cpu0_L1I RFO          ACCESS:          0 HIT:          0 MISS:          0 MSHR_MERGE:          0
cpu0->cpu0_L1I PREFETCH     ACCESS:          0 HIT:          0 MISS:          0 MSHR_MERGE:          0
cpu0->cpu0_L1I WRITE        ACCESS:          0 HIT:          0 MISS:          0 MSHR_MERGE:          0
cpu0->cpu0_L1I TRANSLATION  ACCESS:          0 HIT:          0 MISS:          0 MSHR_MERGE:          0
cpu0->cpu0_L1I PREFETCH REQUESTED:          0 ISSUED:          0 USEFUL:          0 USELESS:          0
cpu0->cpu0_L1I AVERAGE MISS LATENCY: 26.46 cycles
cpu0->cpu0_L1D TOTAL        ACCESS:   19532684 HIT:   17634156 MISS:    1898528 MSHR_MERGE:     551056
cpu0->cpu0_L1D LOAD         ACCESS:   10064101 HIT:    8851889 MISS:    1212212 MSHR_MERGE:     297636
cpu0->cpu0_L1D RFO          ACCESS:          0 HIT:          0 MISS:          0 MSHR_MERGE:          0
cpu0->cpu0_L1D PREFETCH     ACCESS:          0 HIT:          0 MISS:          0 MSHR_MERGE:          0
cpu0->cpu0_L1D WRITE        ACCESS:    9167318 HIT:    8774808 MISS:     392510 MSHR_MERGE:     253123
cpu0->cpu0_L1D TRANSLATION  ACCESS:     301265 HIT:       7459 MISS:     293806 MSHR_MERGE:        297
cpu0->cpu0_L1D PREFETCH REQUESTED:          0 ISSUED:          0 USEFUL:          0 USELESS:          0
cpu0->cpu0_L1D AVERAGE MISS LATENCY: 112.8 cycles
cpu0->cpu0_ITLB TOTAL        ACCESS:   11437463 HIT:   11437184 MISS:        279 MSHR_MERGE:        175
cpu0->cpu0_ITLB LOAD         ACCESS:   11437463 HIT:   11437184 MISS:        279 MSHR_MERGE:        175
cpu0->cpu0_ITLB RFO          ACCESS:          0 HIT:          0 MISS:          0 MSHR_MERGE:          0
cpu0->cpu0_ITLB PREFETCH     ACCESS:          0 HIT:          0 MISS:          0 MSHR_MERGE:          0
cpu0->cpu0_ITLB WRITE        ACCESS:          0 HIT:          0 MISS:          0 MSHR_MERGE:          0
cpu0->cpu0_ITLB TRANSLATION  ACCESS:          0 HIT:          0 MISS:          0 MSHR_MERGE:          0
cpu0->cpu0_ITLB PREFETCH REQUESTED:          0 ISSUED:          0 USEFUL:          0 USELESS:          0
cpu0->cpu0_ITLB AVERAGE MISS LATENCY: 190.4 cycles
cpu0->cpu0_DTLB TOTAL        ACCESS:   18030596 HIT:   17039880 MISS:     990716 MSHR_MERGE:     160367
cpu0->cpu0_DTLB LOAD         ACCESS:   18030596 HIT:   17039880 MISS:     990716 MSHR_MERGE:     160367
cpu0->cpu0_DTLB RFO          ACCESS:          0 HIT:          0 MISS:          0 MSHR_MERGE:          0
cpu0->cpu0_DTLB PREFETCH     ACCESS:          0 HIT:          0 MISS:          0 MSHR_MERGE:          0
cpu0->cpu0_DTLB WRITE        ACCESS:          0 HIT:          0 MISS:          0 MSHR_MERGE:          0
cpu0->cpu0_DTLB TRANSLATION  ACCESS:          0 HIT:          0 MISS:          0 MSHR_MERGE:          0
cpu0->cpu0_DTLB PREFETCH REQUESTED:          0 ISSUED:          0 USEFUL:          0 USELESS:          0
cpu0->cpu0_DTLB AVERAGE MISS LATENCY: 57.72 cycles
cpu0->LLC TOTAL        ACCESS:    1470710 HIT:     341224 MISS:    1129486 MSHR_MERGE:          0
cpu0->LLC LOAD         ACCESS:     644433 HIT:     131750 MISS:     512683 MSHR_MERGE:          0
cpu0->LLC RFO          ACCESS:     108014 HIT:      23563 MISS:      84451 MSHR_MERGE:          0
cpu0->LLC PREFETCH     ACCESS:      65294 HIT:       2165 MISS:      63129 MSHR_MERGE:          0
cpu0->LLC WRITE        ACCESS:     382449 HIT:     127732 MISS:     254717 MSHR_MERGE:          0
cpu0->LLC TRANSLATION  ACCESS:     270520 HIT:      56014 MISS:     214506 MSHR_MERGE:          0
cpu0->LLC PREFETCH REQUESTED:          0 ISSUED:          0 USEFUL:          0 USELESS:          0
cpu0->LLC AVERAGE MISS LATENCY: 117.8 cycles

DRAM Statistics

Channel 0 RQ ROW_BUFFER_HIT:      17628
  ROW_BUFFER_MISS:     857100
  AVG DBUS CONGESTED CYCLE: 23.36
Channel 0 WQ ROW_BUFFER_HIT:      72477
  ROW_BUFFER_MISS:     207360
  FULL:          0
Channel 0 REFRESHES ISSUED:      12103
