[VMEM] WARNING: physical memory size is smaller than virtual memory size.
WARNING: option --warmup_instructions is deprecated. Use --warmup-instructions instead.
WARNING: option --simulation_instructions is deprecated. Use --simulation-instructions instead.

*** ChampSim Multicore Out-of-Order Simulator ***
Warmup Instructions: 20000000
Simulation Instructions: 50000000
Number of CPUs: 1
Page size: 8192

Off-chip DRAM Size: 16 GiB Channels: 1 Width: 64-bit Data Rate: 3205 MT/s
Heartbeat CPU 0 instructions: 10000003 cycles: 5869870 heartbeat IPC: 1.704 cumulative IPC: 1.704 (Simulation time: 00 hr 01 min 01 sec)
Warmup finished CPU 0 instructions: 20000001 cycles: 9587184 cumulative IPC: 2.086 (Simulation time: 00 hr 01 min 47 sec)
Warmup complete CPU 0 instructions: 20000001 cycles: 9587184 cumulative IPC: 2.086 (Simulation time: 00 hr 01 min 47 sec)
Heartbeat CPU 0 instructions: 20000005 cycles: 9587185 heartbeat IPC: 2.69 cumulative IPC: 4 (Simulation time: 00 hr 01 min 47 sec)
Heartbeat CPU 0 instructions: 30000007 cycles: 56459013 heartbeat IPC: 0.2133 cumulative IPC: 0.2133 (Simulation time: 00 hr 05 min 01 sec)
Heartbeat CPU 0 instructions: 40000009 cycles: 103804529 heartbeat IPC: 0.2112 cumulative IPC: 0.2123 (Simulation time: 00 hr 08 min 24 sec)
Heartbeat CPU 0 instructions: 50000009 cycles: 151352861 heartbeat IPC: 0.2103 cumulative IPC: 0.2116 (Simulation time: 00 hr 11 min 47 sec)
Heartbeat CPU 0 instructions: 60000011 cycles: 197788780 heartbeat IPC: 0.2154 cumulative IPC: 0.2125 (Simulation time: 00 hr 14 min 59 sec)
Simulation finished CPU 0 instructions: 50000002 cycles: 236057537 cumulative IPC: 0.2118 (Simulation time: 00 hr 18 min 28 sec)
Simulation complete CPU 0 instructions: 50000002 cycles: 236057537 cumulative IPC: 0.2118 (Simulation time: 00 hr 18 min 28 sec)

ChampSim completed all CPUs

=== Simulation ===
CPU 0 runs traces/473.astar-359B.champsimtrace.xz

Region of Interest Statistics

CPU 0 cumulative IPC: 0.2118 instructions: 50000002 cycles: 236057537
CPU 0 Branch Prediction Accuracy: 93.2% MPKI: 13.43 Average ROB Occupancy at Mispredict: 44.4
Branch type MPKI
BRANCH_DIRECT_JUMP: 0
BRANCH_INDIRECT: 0
BRANCH_CONDITIONAL: 13.42
BRANCH_DIRECT_CALL: 0
BRANCH_INDIRECT_CALL: 0.00054
BRANCH_RETURN: 0

cpu0->cpu0_STLB TOTAL        ACCESS:    1275609 HIT:     889355 MISS:     386254 MSHR_MERGE:          0
cpu0->cpu0_STLB LOAD         ACCESS:    1275609 HIT:     889355 MISS:     386254 MSHR_MERGE:          0
cpu0->cpu0_STLB RFO          ACCESS:          0 HIT:          0 MISS:          0 MSHR_MERGE:          0
cpu0->cpu0_STLB PREFETCH     ACCESS:          0 HIT:          0 MISS:          0 MSHR_MERGE:          0
cpu0->cpu0_STLB WRITE        ACCESS:          0 HIT:          0 MISS:          0 MSHR_MERGE:          0
cpu0->cpu0_STLB TRANSLATION  ACCESS:          0 HIT:          0 MISS:          0 MSHR_MERGE:          0
cpu0->cpu0_STLB PREFETCH REQUESTED:          0 ISSUED:          0 USEFUL:          0 USELESS:          0
cpu0->cpu0_STLB AVERAGE MISS LATENCY: 541.2 cycles
cpu0->cpu0_L2C TOTAL        ACCESS:    6154836 HIT:    2859675 MISS:    3295161 MSHR_MERGE:      70127
cpu0->cpu0_L2C LOAD         ACCESS:    1775429 HIT:     933176 MISS:     842253 MSHR_MERGE:      23182
cpu0->cpu0_L2C RFO          ACCESS:     767628 HIT:      40241 MISS:     727387 MSHR_MERGE:          0
cpu0->cpu0_L2C PREFETCH     ACCESS:    1793662 HIT:     712285 MISS:    1081377 MSHR_MERGE:      46945
cpu0->cpu0_L2C WRITE        ACCESS:    1168871 HIT:    1168231 MISS:        640 MSHR_MERGE:          0
cpu0->cpu0_L2C TRANSLATION  ACCESS:     649246 HIT:       5742 MISS:     643504 MSHR_MERGE:          0
cpu0->cpu0_L2C PREFETCH REQUESTED:    1793662 ISSUED:    1793662 USEFUL:     316066 USELESS:     719691
cpu0->cpu0_L2C AVERAGE MISS LATENCY: 226.5 cycles
cpu0->cpu0_L1I TOTAL        ACCESS:     831689 HIT:     831682 MISS:          7 MSHR_MERGE:          0
cpu0->cpu0_L1I LOAD         ACCESS:     831689 HIT:     831682 MISS:          7 MSHR_MERGE:          0
cpu0->cpu0_L1I RFO          ACCESS:          0 HIT:          0 MISS:          0 MSHR_MERGE:          0
cpu0->cpu0_L1I PREFETCH     ACCESS:          0 HIT:          0 MISS:          0 MSHR_MERGE:          0
cpu0->cpu0_L1I WRITE        ACCESS:          0 HIT:          0 MISS:          0 MSHR_MERGE:          0
cpu0->cpu0_L1I TRANSLATION  ACCESS:          0 HIT:          0 MISS:          0 MSHR_MERGE:          0
cpu0->cpu0_L1I PREFETCH REQUESTED:          0 ISSUED:          0 USEFUL:          0 USELESS:          0
cpu0->cpu0_L1I AVERAGE MISS LATENCY: 156.9 cycles
cpu0->cpu0_L1D TOTAL        ACCESS:   19850543 HIT:   15969452 MISS:    3881091 MSHR_MERGE:     688791
cpu0->cpu0_L1D LOAD         ACCESS:   12759214 HIT:   10389165 MISS:    2370049 MSHR_MERGE:     594625
cpu0->cpu0_L1D RFO          ACCESS:          0 HIT:          0 MISS:          0 MSHR_MERGE:          0
cpu0->cpu0_L1D PREFETCH     ACCESS:          0 HIT:          0 MISS:          0 MSHR_MERGE:          0
cpu0->cpu0_L1D WRITE        ACCESS:    6314635 HIT:    5546913 MISS:     767722 MSHR_MERGE:         92
cpu0->cpu0_L1D TRANSLATION  ACCESS:     776694 HIT:      33374 MISS:     743320 MSHR_MERGE:      94074
cpu0->cpu0_L1D PREFETCH REQUESTED:          0 ISSUED:          0 USEFUL:          0 USELESS:          0
cpu0->cpu0_L1D AVERAGE MISS LATENCY: 167.6 cycles
cpu0->cpu0_ITLB TOTAL        ACCESS:     829611 HIT:     829611 MISS:          0 MSHR_MERGE:          0
cpu0->cpu0_ITLB LOAD         ACCESS:     829611 HIT:     829611 MISS:          0 MSHR_MERGE:          0
cpu0->cpu0_ITLB RFO          ACCESS:          0 HIT:          0 MISS:          0 MSHR_MERGE:          0
cpu0->cpu0_ITLB PREFETCH     ACCESS:          0 HIT:          0 MISS:          0 MSHR_MERGE:          0
cpu0->cpu0_ITLB WRITE        ACCESS:          0 HIT:          0 MISS:          0 MSHR_MERGE:          0
cpu0->cpu0_ITLB TRANSLATION  ACCESS:          0 HIT:          0 MISS:          0 MSHR_MERGE:          0
cpu0->cpu0_ITLB PREFETCH REQUESTED:          0 ISSUED:          0 USEFUL:          0 USELESS:          0
cpu0->cpu0_ITLB AVERAGE MISS LATENCY: - cycles
cpu0->cpu0_DTLB TOTAL        ACCESS:   18140591 HIT:   16261405 MISS:    1879186 MSHR_MERGE:     603577
cpu0->cpu0_DTLB LOAD         ACCESS:   18140591 HIT:   16261405 MISS:    1879186 MSHR_MERGE:     603577
cpu0->cpu0_DTLB RFO          ACCESS:          0 HIT:          0 MISS:          0 MSHR_MERGE:          0
cpu0->cpu0_DTLB PREFETCH     ACCESS:          0 HIT:          0 MISS:          0 MSHR_MERGE:          0
cpu0->cpu0_DTLB WRITE        ACCESS:          0 HIT:          0 MISS:          0 MSHR_MERGE:          0
cpu0->cpu0_DTLB TRANSLATION  ACCESS:          0 HIT:          0 MISS:          0 MSHR_MERGE:          0
cpu0->cpu0_DTLB PREFETCH REQUESTED:          0 ISSUED:          0 USEFUL:          0 USELESS:          0
cpu0->cpu0_DTLB AVERAGE MISS LATENCY: 168.2 cycles
cpu0->LLC TOTAL        ACCESS:    4354621 HIT:    1077863 MISS:    3276758 MSHR_MERGE:          0
cpu0->LLC LOAD         ACCESS:     819071 HIT:     246848 MISS:     572223 MSHR_MERGE:          0
cpu0->LLC RFO          ACCESS:     727386 HIT:     229146 MISS:     498240 MSHR_MERGE:          0
cpu0->LLC PREFETCH     ACCESS:    1034432 HIT:     104836 MISS:     929596 MSHR_MERGE:          0
cpu0->LLC WRITE        ACCESS:    1130228 HIT:     429923 MISS:     700305 MSHR_MERGE:          0
cpu0->LLC TRANSLATION  ACCESS:     643504 HIT:      67110 MISS:     576394 MSHR_MERGE:          0
cpu0->LLC PREFETCH REQUESTED:          0 ISSUED:          0 USEFUL:          0 USELESS:          0
cpu0->LLC AVERAGE MISS LATENCY: 199 cycles

DRAM Statistics

Channel 0 RQ ROW_BUFFER_HIT:      66292
  ROW_BUFFER_MISS:    2508097
  AVG DBUS CONGESTED CYCLE: 19.05
Channel 0 WQ ROW_BUFFER_HIT:     128229
  ROW_BUFFER_MISS:     625907
  FULL:         23
Channel 0 REFRESHES ISSUED:      19672
