[VMEM] WARNING: physical memory size is smaller than virtual memory size.

*** ChampSim Multicore Out-of-Order Simulator ***
Warmup Instructions: 100000000
Simulation Instructions: 500000000
Number of CPUs: 1
Page size: 4096

Off-chip DRAM Size: 16 GiB Channels: 1 Width: 64-bit Data Rate: 3205 MT/s
Heartbeat CPU 0 instructions: 10000001 cycles: 2965459 heartbeat IPC: 3.372 cumulative IPC: 3.372 (Simulation time: 00 hr 01 min 20 sec)
Heartbeat CPU 0 instructions: 20000004 cycles: 5934304 heartbeat IPC: 3.368 cumulative IPC: 3.37 (Simulation time: 00 hr 02 min 45 sec)
Heartbeat CPU 0 instructions: 30000008 cycles: 8895764 heartbeat IPC: 3.377 cumulative IPC: 3.372 (Simulation time: 00 hr 04 min 19 sec)
Heartbeat CPU 0 instructions: 40000011 cycles: 11853068 heartbeat IPC: 3.381 cumulative IPC: 3.375 (Simulation time: 00 hr 05 min 41 sec)
Heartbeat CPU 0 instructions: 50000013 cycles: 14813136 heartbeat IPC: 3.378 cumulative IPC: 3.375 (Simulation time: 00 hr 07 min 02 sec)
Heartbeat CPU 0 instructions: 60000016 cycles: 17699077 heartbeat IPC: 3.465 cumulative IPC: 3.39 (Simulation time: 00 hr 08 min 25 sec)
Heartbeat CPU 0 instructions: 70000018 cycles: 20535008 heartbeat IPC: 3.526 cumulative IPC: 3.409 (Simulation time: 00 hr 09 min 48 sec)
Heartbeat CPU 0 instructions: 80000018 cycles: 23370317 heartbeat IPC: 3.527 cumulative IPC: 3.423 (Simulation time: 00 hr 11 min 11 sec)
Heartbeat CPU 0 instructions: 90000020 cycles: 26207426 heartbeat IPC: 3.525 cumulative IPC: 3.434 (Simulation time: 00 hr 12 min 36 sec)
Warmup finished CPU 0 instructions: 100000003 cycles: 29044066 cumulative IPC: 3.443 (Simulation time: 00 hr 14 min 01 sec)
Warmup complete CPU 0 instructions: 100000003 cycles: 29044066 cumulative IPC: 3.443 (Simulation time: 00 hr 14 min 01 sec)
Heartbeat CPU 0 instructions: 100000023 cycles: 29044070 heartbeat IPC: 3.525 cumulative IPC: 5 (Simulation time: 00 hr 14 min 01 sec)
Heartbeat CPU 0 instructions: 110000024 cycles: 36442740 heartbeat IPC: 1.352 cumulative IPC: 1.352 (Simulation time: 00 hr 16 min 24 sec)
Heartbeat CPU 0 instructions: 120000024 cycles: 43804022 heartbeat IPC: 1.358 cumulative IPC: 1.355 (Simulation time: 00 hr 18 min 49 sec)
Heartbeat CPU 0 instructions: 130000025 cycles: 51175707 heartbeat IPC: 1.357 cumulative IPC: 1.356 (Simulation time: 00 hr 21 min 17 sec)
Heartbeat CPU 0 instructions: 140000027 cycles: 58553675 heartbeat IPC: 1.355 cumulative IPC: 1.355 (Simulation time: 00 hr 23 min 45 sec)
Heartbeat CPU 0 instructions: 150000029 cycles: 65966149 heartbeat IPC: 1.349 cumulative IPC: 1.354 (Simulation time: 00 hr 26 min 00 sec)
Heartbeat CPU 0 instructions: 160000032 cycles: 73162381 heartbeat IPC: 1.39 cumulative IPC: 1.36 (Simulation time: 00 hr 28 min 13 sec)
Heartbeat CPU 0 instructions: 170000035 cycles: 80357345 heartbeat IPC: 1.39 cumulative IPC: 1.364 (Simulation time: 00 hr 30 min 27 sec)
Heartbeat CPU 0 instructions: 180000038 cycles: 87577628 heartbeat IPC: 1.385 cumulative IPC: 1.367 (Simulation time: 00 hr 32 min 39 sec)
Heartbeat CPU 0 instructions: 190000039 cycles: 94800365 heartbeat IPC: 1.385 cumulative IPC: 1.369 (Simulation time: 00 hr 34 min 52 sec)
Heartbeat CPU 0 instructions: 200000039 cycles: 102027043 heartbeat IPC: 1.384 cumulative IPC: 1.37 (Simulation time: 00 hr 37 min 04 sec)
Heartbeat CPU 0 instructions: 210000040 cycles: 109206583 heartbeat IPC: 1.393 cumulative IPC: 1.372 (Simulation time: 00 hr 39 min 16 sec)
Heartbeat CPU 0 instructions: 220000042 cycles: 116425769 heartbeat IPC: 1.385 cumulative IPC: 1.373 (Simulation time: 00 hr 41 min 29 sec)
Heartbeat CPU 0 instructions: 230000044 cycles: 123635178 heartbeat IPC: 1.387 cumulative IPC: 1.374 (Simulation time: 00 hr 43 min 41 sec)
Heartbeat CPU 0 instructions: 240000044 cycles: 130962940 heartbeat IPC: 1.365 cumulative IPC: 1.374 (Simulation time: 00 hr 45 min 54 sec)
Heartbeat CPU 0 instructions: 250000045 cycles: 138177377 heartbeat IPC: 1.386 cumulative IPC: 1.374 (Simulation time: 00 hr 48 min 07 sec)
Heartbeat CPU 0 instructions: 260000048 cycles: 145344870 heartbeat IPC: 1.395 cumulative IPC: 1.376 (Simulation time: 00 hr 50 min 18 sec)
Heartbeat CPU 0 instructions: 270000051 cycles: 152541888 heartbeat IPC: 1.389 cumulative IPC: 1.377 (Simulation time: 00 hr 52 min 31 sec)
Heartbeat CPU 0 instructions: 280000051 cycles: 159769557 heartbeat IPC: 1.384 cumulative IPC: 1.377 (Simulation time: 00 hr 54 min 56 sec)
Heartbeat CPU 0 instructions: 290000051 cycles: 166969417 heartbeat IPC: 1.389 cumulative IPC: 1.378 (Simulation time: 00 hr 57 min 37 sec)
Heartbeat CPU 0 instructions: 300000054 cycles: 174206028 heartbeat IPC: 1.382 cumulative IPC: 1.378 (Simulation time: 01 hr 00 min 11 sec)
Heartbeat CPU 0 instructions: 310000054 cycles: 181443799 heartbeat IPC: 1.382 cumulative IPC: 1.378 (Simulation time: 01 hr 02 min 46 sec)
Heartbeat CPU 0 instructions: 320000058 cycles: 188675536 heartbeat IPC: 1.383 cumulative IPC: 1.378 (Simulation time: 01 hr 05 min 11 sec)
Heartbeat CPU 0 instructions: 330000062 cycles: 195871344 heartbeat IPC: 1.39 cumulative IPC: 1.379 (Simulation time: 01 hr 07 min 46 sec)
Heartbeat CPU 0 instructions: 340000063 cycles: 203174548 heartbeat IPC: 1.369 cumulative IPC: 1.378 (Simulation time: 01 hr 10 min 04 sec)
Heartbeat CPU 0 instructions: 350000063 cycles: 210402167 heartbeat IPC: 1.384 cumulative IPC: 1.378 (Simulation time: 01 hr 12 min 21 sec)
Heartbeat CPU 0 instructions: 360000066 cycles: 217647440 heartbeat IPC: 1.38 cumulative IPC: 1.379 (Simulation time: 01 hr 14 min 37 sec)
Heartbeat CPU 0 instructions: 370000066 cycles: 224901221 heartbeat IPC: 1.379 cumulative IPC: 1.379 (Simulation time: 01 hr 16 min 53 sec)
Heartbeat CPU 0 instructions: 380000067 cycles: 232090385 heartbeat IPC: 1.391 cumulative IPC: 1.379 (Simulation time: 01 hr 19 min 08 sec)
Heartbeat CPU 0 instructions: 390000067 cycles: 239319769 heartbeat IPC: 1.383 cumulative IPC: 1.379 (Simulation time: 01 hr 21 min 24 sec)
Heartbeat CPU 0 instructions: 400000067 cycles: 246541249 heartbeat IPC: 1.385 cumulative IPC: 1.379 (Simulation time: 01 hr 23 min 40 sec)
Heartbeat CPU 0 instructions: 410000070 cycles: 253731885 heartbeat IPC: 1.391 cumulative IPC: 1.38 (Simulation time: 01 hr 25 min 55 sec)
Heartbeat CPU 0 instructions: 420000070 cycles: 260971217 heartbeat IPC: 1.381 cumulative IPC: 1.38 (Simulation time: 01 hr 28 min 12 sec)
Heartbeat CPU 0 instructions: 430000070 cycles: 268319873 heartbeat IPC: 1.361 cumulative IPC: 1.379 (Simulation time: 01 hr 30 min 28 sec)
Heartbeat CPU 0 instructions: 440000070 cycles: 275536419 heartbeat IPC: 1.386 cumulative IPC: 1.379 (Simulation time: 01 hr 32 min 42 sec)
Heartbeat CPU 0 instructions: 450000070 cycles: 282724642 heartbeat IPC: 1.391 cumulative IPC: 1.38 (Simulation time: 01 hr 34 min 48 sec)
Heartbeat CPU 0 instructions: 460000072 cycles: 289981058 heartbeat IPC: 1.378 cumulative IPC: 1.38 (Simulation time: 01 hr 36 min 41 sec)
Heartbeat CPU 0 instructions: 470000076 cycles: 297141655 heartbeat IPC: 1.397 cumulative IPC: 1.38 (Simulation time: 01 hr 38 min 30 sec)
Heartbeat CPU 0 instructions: 480000079 cycles: 304376155 heartbeat IPC: 1.382 cumulative IPC: 1.38 (Simulation time: 01 hr 40 min 19 sec)
Heartbeat CPU 0 instructions: 490000079 cycles: 311632341 heartbeat IPC: 1.378 cumulative IPC: 1.38 (Simulation time: 01 hr 42 min 06 sec)
Heartbeat CPU 0 instructions: 500000080 cycles: 318924009 heartbeat IPC: 1.371 cumulative IPC: 1.38 (Simulation time: 01 hr 43 min 56 sec)
Heartbeat CPU 0 instructions: 510000083 cycles: 326159538 heartbeat IPC: 1.382 cumulative IPC: 1.38 (Simulation time: 01 hr 45 min 44 sec)
Heartbeat CPU 0 instructions: 520000083 cycles: 333470318 heartbeat IPC: 1.368 cumulative IPC: 1.38 (Simulation time: 01 hr 47 min 31 sec)
Heartbeat CPU 0 instructions: 530000085 cycles: 340714143 heartbeat IPC: 1.38 cumulative IPC: 1.38 (Simulation time: 01 hr 49 min 18 sec)
Heartbeat CPU 0 instructions: 540000087 cycles: 347921923 heartbeat IPC: 1.387 cumulative IPC: 1.38 (Simulation time: 01 hr 51 min 06 sec)
Heartbeat CPU 0 instructions: 550000091 cycles: 355146613 heartbeat IPC: 1.384 cumulative IPC: 1.38 (Simulation time: 01 hr 52 min 52 sec)
Heartbeat CPU 0 instructions: 560000091 cycles: 362346854 heartbeat IPC: 1.389 cumulative IPC: 1.38 (Simulation time: 01 hr 54 min 38 sec)
Heartbeat CPU 0 instructions: 570000094 cycles: 369546139 heartbeat IPC: 1.389 cumulative IPC: 1.38 (Simulation time: 01 hr 56 min 26 sec)
Heartbeat CPU 0 instructions: 580000096 cycles: 376723804 heartbeat IPC: 1.393 cumulative IPC: 1.381 (Simulation time: 01 hr 58 min 16 sec)
Heartbeat CPU 0 instructions: 590000096 cycles: 383939155 heartbeat IPC: 1.386 cumulative IPC: 1.381 (Simulation time: 02 hr 00 min 04 sec)
Simulation finished CPU 0 instructions: 500000000 cycles: 362069954 cumulative IPC: 1.381 (Simulation time: 02 hr 01 min 52 sec)
Simulation complete CPU 0 instructions: 500000000 cycles: 362069954 cumulative IPC: 1.381 (Simulation time: 02 hr 01 min 52 sec)

ChampSim completed all CPUs

=== Simulation ===
CPU 0 runs traces/T3.xz

Region of Interest Statistics

CPU 0 cumulative IPC: 1.381 instructions: 500000000 cycles: 362069954
CPU 0 Branch Prediction Accuracy: 99.85% MPKI: 0.001804 Average ROB Occupancy at Mispredict: 278.3
Branch type MPKI
BRANCH_DIRECT_JUMP: 2e-06
BRANCH_INDIRECT: 1e-05
BRANCH_CONDITIONAL: 0.001792
BRANCH_DIRECT_CALL: 0
BRANCH_INDIRECT_CALL: 0
BRANCH_RETURN: 0

cpu0->cpu0_STLB TOTAL        ACCESS:   37706061 HIT:   37645191 MISS:      60870 MSHR_MERGE:          0
cpu0->cpu0_STLB LOAD         ACCESS:   37706061 HIT:   37645191 MISS:      60870 MSHR_MERGE:          0
cpu0->cpu0_STLB RFO          ACCESS:          0 HIT:          0 MISS:          0 MSHR_MERGE:          0
cpu0->cpu0_STLB PREFETCH     ACCESS:          0 HIT:          0 MISS:          0 MSHR_MERGE:          0
cpu0->cpu0_STLB WRITE        ACCESS:          0 HIT:          0 MISS:          0 MSHR_MERGE:          0
cpu0->cpu0_STLB TRANSLATION  ACCESS:          0 HIT:          0 MISS:          0 MSHR_MERGE:          0
cpu0->cpu0_STLB PREFETCH REQUESTED:          0 ISSUED:          0 USEFUL:          0 USELESS:          0
cpu0->cpu0_STLB AVERAGE MISS LATENCY: 543.9 cycles
cpu0->cpu0_L2C TOTAL        ACCESS:   63093558 HIT:   56614388 MISS:    6479170 MSHR_MERGE:          0
cpu0->cpu0_L2C LOAD         ACCESS:   54415085 HIT:   48285571 MISS:    6129514 MSHR_MERGE:          0
cpu0->cpu0_L2C RFO          ACCESS:    4064691 HIT:    3853641 MISS:     211050 MSHR_MERGE:          0
cpu0->cpu0_L2C PREFETCH     ACCESS:          0 HIT:          0 MISS:          0 MSHR_MERGE:          0
cpu0->cpu0_L2C WRITE        ACCESS:    4458766 HIT:    4458753 MISS:         13 MSHR_MERGE:          0
cpu0->cpu0_L2C TRANSLATION  ACCESS:     155016 HIT:      16423 MISS:     138593 MSHR_MERGE:          0
cpu0->cpu0_L2C PREFETCH REQUESTED:          0 ISSUED:          0 USEFUL:          0 USELESS:          0
cpu0->cpu0_L2C AVERAGE MISS LATENCY: 151.9 cycles
cpu0->cpu0_L1I TOTAL        ACCESS:   97248481 HIT:   97248481 MISS:          0 MSHR_MERGE:          0
cpu0->cpu0_L1I LOAD         ACCESS:   97248481 HIT:   97248481 MISS:          0 MSHR_MERGE:          0
cpu0->cpu0_L1I RFO          ACCESS:          0 HIT:          0 MISS:          0 MSHR_MERGE:          0
cpu0->cpu0_L1I PREFETCH     ACCESS:          0 HIT:          0 MISS:          0 MSHR_MERGE:          0
cpu0->cpu0_L1I WRITE        ACCESS:          0 HIT:          0 MISS:          0 MSHR_MERGE:          0
cpu0->cpu0_L1I TRANSLATION  ACCESS:          0 HIT:          0 MISS:          0 MSHR_MERGE:          0
cpu0->cpu0_L1I PREFETCH REQUESTED:          0 ISSUED:          0 USEFUL:          0 USELESS:          0
cpu0->cpu0_L1I AVERAGE MISS LATENCY: - cycles
cpu0->cpu0_L1D TOTAL        ACCESS:  153902502 HIT:   87092153 MISS:   66810349 MSHR_MERGE:    8042386
cpu0->cpu0_L1D LOAD         ACCESS:   96620880 HIT:   34455120 MISS:   62165760 MSHR_MERGE:    7620011
cpu0->cpu0_L1D RFO          ACCESS:          0 HIT:          0 MISS:          0 MSHR_MERGE:          0
cpu0->cpu0_L1D PREFETCH     ACCESS:          0 HIT:          0 MISS:          0 MSHR_MERGE:          0
cpu0->cpu0_L1D WRITE        ACCESS:   57125862 HIT:   52636514 MISS:    4489348 MSHR_MERGE:     422150
cpu0->cpu0_L1D TRANSLATION  ACCESS:     155760 HIT:        519 MISS:     155241 MSHR_MERGE:        225
cpu0->cpu0_L1D PREFETCH REQUESTED:          0 ISSUED:          0 USEFUL:          0 USELESS:          0
cpu0->cpu0_L1D AVERAGE MISS LATENCY: 25.46 cycles
cpu0->cpu0_ITLB TOTAL        ACCESS:   78320240 HIT:   78320240 MISS:          0 MSHR_MERGE:          0
cpu0->cpu0_ITLB LOAD         ACCESS:   78320240 HIT:   78320240 MISS:          0 MSHR_MERGE:          0
cpu0->cpu0_ITLB RFO          ACCESS:          0 HIT:          0 MISS:          0 MSHR_MERGE:          0
cpu0->cpu0_ITLB PREFETCH     ACCESS:          0 HIT:          0 MISS:          0 MSHR_MERGE:          0
cpu0->cpu0_ITLB WRITE        ACCESS:          0 HIT:          0 MISS:          0 MSHR_MERGE:          0
cpu0->cpu0_ITLB TRANSLATION  ACCESS:          0 HIT:          0 MISS:          0 MSHR_MERGE:          0
cpu0->cpu0_ITLB PREFETCH REQUESTED:          0 ISSUED:          0 USEFUL:          0 USELESS:          0
cpu0->cpu0_ITLB AVERAGE MISS LATENCY: - cycles
cpu0->cpu0_DTLB TOTAL        ACCESS:  142245287 HIT:   91500288 MISS:   50744999 MSHR_MERGE:   13038938
cpu0->cpu0_DTLB LOAD         ACCESS:  142245287 HIT:   91500288 MISS:   50744999 MSHR_MERGE:   13038938
cpu0->cpu0_DTLB RFO          ACCESS:          0 HIT:          0 MISS:          0 MSHR_MERGE:          0
cpu0->cpu0_DTLB PREFETCH     ACCESS:          0 HIT:          0 MISS:          0 MSHR_MERGE:          0
cpu0->cpu0_DTLB WRITE        ACCESS:          0 HIT:          0 MISS:          0 MSHR_MERGE:          0
cpu0->cpu0_DTLB TRANSLATION  ACCESS:          0 HIT:          0 MISS:          0 MSHR_MERGE:          0
cpu0->cpu0_DTLB PREFETCH REQUESTED:          0 ISSUED:          0 USEFUL:          0 USELESS:          0
cpu0->cpu0_DTLB AVERAGE MISS LATENCY: 5.921 cycles
cpu0->LLC TOTAL        ACCESS:    7103101 HIT:    3164142 MISS:    3938959 MSHR_MERGE:          0
cpu0->LLC LOAD         ACCESS:    6129505 HIT:    2284198 MISS:    3845307 MSHR_MERGE:          0
cpu0->LLC RFO          ACCESS:     209153 HIT:     209148 MISS:          5 MSHR_MERGE:          0
cpu0->LLC PREFETCH     ACCESS:          0 HIT:          0 MISS:          0 MSHR_MERGE:          0
cpu0->LLC WRITE        ACCESS:     625850 HIT:     625487 MISS:        363 MSHR_MERGE:          0
cpu0->LLC TRANSLATION  ACCESS:     138593 HIT:      45309 MISS:      93284 MSHR_MERGE:          0
cpu0->LLC PREFETCH REQUESTED:          0 ISSUED:          0 USEFUL:          0 USELESS:          0
cpu0->LLC AVERAGE MISS LATENCY: 224.2 cycles

DRAM Statistics

Channel 0 RQ ROW_BUFFER_HIT:        747
  ROW_BUFFER_MISS:    3937849
  AVG DBUS CONGESTED CYCLE: 5.248
Channel 0 WQ ROW_BUFFER_HIT:      58647
  ROW_BUFFER_MISS:     419726
  FULL:          0
Channel 0 REFRESHES ISSUED:      30172
MPP LLC predicted_reuse: 498089 predicted_dead: 3968736
MPP LLC train_positive: 40193 train_negative: 237743
MPP LLC total_evictions: 4434057
