[VMEM] WARNING: physical memory size is smaller than virtual memory size.

*** ChampSim Multicore Out-of-Order Simulator ***
Warmup Instructions: 100000000
Simulation Instructions: 500000000
Number of CPUs: 1
Page size: 4096

Off-chip DRAM Size: 16 GiB Channels: 1 Width: 64-bit Data Rate: 3205 MT/s
Heartbeat CPU 0 instructions: 10000000 cycles: 2973819 heartbeat IPC: 3.363 cumulative IPC: 3.363 (Simulation time: 00 hr 01 min 08 sec)
Heartbeat CPU 0 instructions: 20000000 cycles: 5933738 heartbeat IPC: 3.378 cumulative IPC: 3.371 (Simulation time: 00 hr 02 min 24 sec)
Heartbeat CPU 0 instructions: 30000002 cycles: 8894089 heartbeat IPC: 3.378 cumulative IPC: 3.373 (Simulation time: 00 hr 03 min 36 sec)
Heartbeat CPU 0 instructions: 40000004 cycles: 11853235 heartbeat IPC: 3.379 cumulative IPC: 3.375 (Simulation time: 00 hr 04 min 41 sec)
Heartbeat CPU 0 instructions: 50000004 cycles: 14813634 heartbeat IPC: 3.378 cumulative IPC: 3.375 (Simulation time: 00 hr 05 min 45 sec)
Heartbeat CPU 0 instructions: 60000007 cycles: 17772991 heartbeat IPC: 3.379 cumulative IPC: 3.376 (Simulation time: 00 hr 06 min 49 sec)
Heartbeat CPU 0 instructions: 70000007 cycles: 20732378 heartbeat IPC: 3.379 cumulative IPC: 3.376 (Simulation time: 00 hr 07 min 54 sec)
Heartbeat CPU 0 instructions: 80000010 cycles: 23693080 heartbeat IPC: 3.378 cumulative IPC: 3.377 (Simulation time: 00 hr 08 min 59 sec)
Heartbeat CPU 0 instructions: 90000012 cycles: 26652599 heartbeat IPC: 3.379 cumulative IPC: 3.377 (Simulation time: 00 hr 10 min 04 sec)
Warmup finished CPU 0 instructions: 100000000 cycles: 29611927 cumulative IPC: 3.377 (Simulation time: 00 hr 11 min 09 sec)
Warmup complete CPU 0 instructions: 100000000 cycles: 29611927 cumulative IPC: 3.377 (Simulation time: 00 hr 11 min 09 sec)
Heartbeat CPU 0 instructions: 100000015 cycles: 29611930 heartbeat IPC: 3.379 cumulative IPC: 5 (Simulation time: 00 hr 11 min 09 sec)
Heartbeat CPU 0 instructions: 110000016 cycles: 54895553 heartbeat IPC: 0.3955 cumulative IPC: 0.3955 (Simulation time: 00 hr 17 min 04 sec)
Heartbeat CPU 0 instructions: 120000020 cycles: 80201283 heartbeat IPC: 0.3952 cumulative IPC: 0.3953 (Simulation time: 00 hr 22 min 58 sec)
Heartbeat CPU 0 instructions: 130000020 cycles: 105471115 heartbeat IPC: 0.3957 cumulative IPC: 0.3955 (Simulation time: 00 hr 28 min 53 sec)
Heartbeat CPU 0 instructions: 140000024 cycles: 130758905 heartbeat IPC: 0.3954 cumulative IPC: 0.3955 (Simulation time: 00 hr 34 min 52 sec)
Heartbeat CPU 0 instructions: 150000024 cycles: 156046665 heartbeat IPC: 0.3954 cumulative IPC: 0.3955 (Simulation time: 00 hr 41 min 46 sec)
Heartbeat CPU 0 instructions: 160000028 cycles: 181343670 heartbeat IPC: 0.3953 cumulative IPC: 0.3954 (Simulation time: 00 hr 48 min 17 sec)
Heartbeat CPU 0 instructions: 170000028 cycles: 206627997 heartbeat IPC: 0.3955 cumulative IPC: 0.3954 (Simulation time: 00 hr 54 min 20 sec)
Heartbeat CPU 0 instructions: 180000031 cycles: 231944421 heartbeat IPC: 0.395 cumulative IPC: 0.3954 (Simulation time: 01 hr 00 min 20 sec)
Heartbeat CPU 0 instructions: 190000034 cycles: 257275508 heartbeat IPC: 0.3948 cumulative IPC: 0.3953 (Simulation time: 01 hr 06 min 21 sec)
Heartbeat CPU 0 instructions: 200000035 cycles: 282573608 heartbeat IPC: 0.3953 cumulative IPC: 0.3953 (Simulation time: 01 hr 12 min 19 sec)
Heartbeat CPU 0 instructions: 210000038 cycles: 307873958 heartbeat IPC: 0.3953 cumulative IPC: 0.3953 (Simulation time: 01 hr 17 min 39 sec)
Heartbeat CPU 0 instructions: 220000038 cycles: 333144787 heartbeat IPC: 0.3957 cumulative IPC: 0.3953 (Simulation time: 01 hr 22 min 29 sec)
Heartbeat CPU 0 instructions: 230000038 cycles: 358435892 heartbeat IPC: 0.3954 cumulative IPC: 0.3953 (Simulation time: 01 hr 27 min 15 sec)
Heartbeat CPU 0 instructions: 240000042 cycles: 383736182 heartbeat IPC: 0.3953 cumulative IPC: 0.3953 (Simulation time: 01 hr 32 min 01 sec)
Heartbeat CPU 0 instructions: 250000042 cycles: 409016836 heartbeat IPC: 0.3956 cumulative IPC: 0.3954 (Simulation time: 01 hr 36 min 46 sec)
Heartbeat CPU 0 instructions: 260000046 cycles: 434310629 heartbeat IPC: 0.3954 cumulative IPC: 0.3954 (Simulation time: 01 hr 41 min 38 sec)
Heartbeat CPU 0 instructions: 270000046 cycles: 457056545 heartbeat IPC: 0.4396 cumulative IPC: 0.3977 (Simulation time: 01 hr 45 min 29 sec)
Heartbeat CPU 0 instructions: 280000047 cycles: 478143924 heartbeat IPC: 0.4742 cumulative IPC: 0.4013 (Simulation time: 01 hr 48 min 58 sec)
Heartbeat CPU 0 instructions: 290000048 cycles: 503458127 heartbeat IPC: 0.395 cumulative IPC: 0.401 (Simulation time: 01 hr 53 min 06 sec)
Heartbeat CPU 0 instructions: 300000052 cycles: 528811997 heartbeat IPC: 0.3944 cumulative IPC: 0.4006 (Simulation time: 01 hr 57 min 17 sec)
Heartbeat CPU 0 instructions: 310000052 cycles: 554158069 heartbeat IPC: 0.3945 cumulative IPC: 0.4003 (Simulation time: 02 hr 01 min 26 sec)
Heartbeat CPU 0 instructions: 320000056 cycles: 579518134 heartbeat IPC: 0.3943 cumulative IPC: 0.4001 (Simulation time: 02 hr 05 min 36 sec)
Heartbeat CPU 0 instructions: 330000056 cycles: 604847441 heartbeat IPC: 0.3948 cumulative IPC: 0.3998 (Simulation time: 02 hr 09 min 45 sec)
Heartbeat CPU 0 instructions: 340000060 cycles: 630179906 heartbeat IPC: 0.3948 cumulative IPC: 0.3996 (Simulation time: 02 hr 14 min 29 sec)
Heartbeat CPU 0 instructions: 350000064 cycles: 655524124 heartbeat IPC: 0.3946 cumulative IPC: 0.3994 (Simulation time: 02 hr 21 min 17 sec)
Heartbeat CPU 0 instructions: 360000067 cycles: 680870030 heartbeat IPC: 0.3945 cumulative IPC: 0.3992 (Simulation time: 02 hr 27 min 53 sec)
Heartbeat CPU 0 instructions: 370000068 cycles: 706213934 heartbeat IPC: 0.3946 cumulative IPC: 0.3991 (Simulation time: 02 hr 33 min 50 sec)
Heartbeat CPU 0 instructions: 380000070 cycles: 731541546 heartbeat IPC: 0.3948 cumulative IPC: 0.3989 (Simulation time: 02 hr 38 min 19 sec)
Heartbeat CPU 0 instructions: 390000072 cycles: 756931243 heartbeat IPC: 0.3939 cumulative IPC: 0.3987 (Simulation time: 02 hr 43 min 08 sec)
Heartbeat CPU 0 instructions: 400000075 cycles: 782308890 heartbeat IPC: 0.394 cumulative IPC: 0.3986 (Simulation time: 02 hr 47 min 56 sec)
Heartbeat CPU 0 instructions: 410000075 cycles: 807660684 heartbeat IPC: 0.3944 cumulative IPC: 0.3984 (Simulation time: 02 hr 52 min 45 sec)
Heartbeat CPU 0 instructions: 420000079 cycles: 833007269 heartbeat IPC: 0.3945 cumulative IPC: 0.3983 (Simulation time: 02 hr 57 min 20 sec)
Heartbeat CPU 0 instructions: 430000079 cycles: 858382470 heartbeat IPC: 0.3941 cumulative IPC: 0.3982 (Simulation time: 03 hr 02 min 13 sec)
Heartbeat CPU 0 instructions: 440000083 cycles: 883724409 heartbeat IPC: 0.3946 cumulative IPC: 0.3981 (Simulation time: 03 hr 07 min 08 sec)
Heartbeat CPU 0 instructions: 450000083 cycles: 909094823 heartbeat IPC: 0.3942 cumulative IPC: 0.398 (Simulation time: 03 hr 11 min 28 sec)
Heartbeat CPU 0 instructions: 460000085 cycles: 934471471 heartbeat IPC: 0.3941 cumulative IPC: 0.3979 (Simulation time: 03 hr 15 min 39 sec)
Heartbeat CPU 0 instructions: 470000086 cycles: 959849775 heartbeat IPC: 0.394 cumulative IPC: 0.3977 (Simulation time: 03 hr 19 min 45 sec)
Heartbeat CPU 0 instructions: 480000089 cycles: 985192398 heartbeat IPC: 0.3946 cumulative IPC: 0.3977 (Simulation time: 03 hr 23 min 37 sec)
Heartbeat CPU 0 instructions: 490000090 cycles: 1010525880 heartbeat IPC: 0.3947 cumulative IPC: 0.3976 (Simulation time: 03 hr 27 min 34 sec)
Heartbeat CPU 0 instructions: 500000094 cycles: 1035839877 heartbeat IPC: 0.395 cumulative IPC: 0.3975 (Simulation time: 03 hr 31 min 58 sec)
Heartbeat CPU 0 instructions: 510000098 cycles: 1061171439 heartbeat IPC: 0.3948 cumulative IPC: 0.3975 (Simulation time: 03 hr 36 min 14 sec)
Heartbeat CPU 0 instructions: 520000102 cycles: 1086516939 heartbeat IPC: 0.3945 cumulative IPC: 0.3974 (Simulation time: 03 hr 40 min 02 sec)
Heartbeat CPU 0 instructions: 530000102 cycles: 1111878070 heartbeat IPC: 0.3943 cumulative IPC: 0.3973 (Simulation time: 03 hr 44 min 05 sec)
Heartbeat CPU 0 instructions: 540000106 cycles: 1137255864 heartbeat IPC: 0.394 cumulative IPC: 0.3972 (Simulation time: 03 hr 48 min 02 sec)
Heartbeat CPU 0 instructions: 550000106 cycles: 1162617664 heartbeat IPC: 0.3943 cumulative IPC: 0.3972 (Simulation time: 03 hr 51 min 54 sec)
Heartbeat CPU 0 instructions: 560000108 cycles: 1187999350 heartbeat IPC: 0.394 cumulative IPC: 0.3971 (Simulation time: 03 hr 55 min 49 sec)
Heartbeat CPU 0 instructions: 570000109 cycles: 1213419200 heartbeat IPC: 0.3934 cumulative IPC: 0.397 (Simulation time: 03 hr 59 min 50 sec)
Heartbeat CPU 0 instructions: 580000112 cycles: 1238774976 heartbeat IPC: 0.3944 cumulative IPC: 0.397 (Simulation time: 04 hr 03 min 47 sec)
Heartbeat CPU 0 instructions: 590000113 cycles: 1264149397 heartbeat IPC: 0.3941 cumulative IPC: 0.3969 (Simulation time: 04 hr 07 min 55 sec)
Simulation finished CPU 0 instructions: 500000003 cycles: 1259930813 cumulative IPC: 0.3968 (Simulation time: 04 hr 11 min 53 sec)
Simulation complete CPU 0 instructions: 500000003 cycles: 1259930813 cumulative IPC: 0.3968 (Simulation time: 04 hr 11 min 53 sec)

ChampSim completed all CPUs

=== Simulation ===
CPU 0 runs traces/T4.xz

Region of Interest Statistics

CPU 0 cumulative IPC: 0.3968 instructions: 500000003 cycles: 1259930813
CPU 0 Branch Prediction Accuracy: 99.63% MPKI: 0.06786 Average ROB Occupancy at Mispredict: 76.51
Branch type MPKI
BRANCH_DIRECT_JUMP: 0.000178
BRANCH_INDIRECT: 0
BRANCH_CONDITIONAL: 0.05161
BRANCH_DIRECT_CALL: 3.2e-05
BRANCH_INDIRECT_CALL: 0
BRANCH_RETURN: 0.01604

cpu0->cpu0_STLB TOTAL        ACCESS:     116434 HIT:      48248 MISS:      68186 MSHR_MERGE:          0
cpu0->cpu0_STLB LOAD         ACCESS:     116434 HIT:      48248 MISS:      68186 MSHR_MERGE:          0
cpu0->cpu0_STLB RFO          ACCESS:          0 HIT:          0 MISS:          0 MSHR_MERGE:          0
cpu0->cpu0_STLB PREFETCH     ACCESS:          0 HIT:          0 MISS:          0 MSHR_MERGE:          0
cpu0->cpu0_STLB WRITE        ACCESS:          0 HIT:          0 MISS:          0 MSHR_MERGE:          0
cpu0->cpu0_STLB TRANSLATION  ACCESS:          0 HIT:          0 MISS:          0 MSHR_MERGE:          0
cpu0->cpu0_STLB PREFETCH REQUESTED:          0 ISSUED:          0 USEFUL:          0 USELESS:          0
cpu0->cpu0_STLB AVERAGE MISS LATENCY: 664.6 cycles
cpu0->cpu0_L2C TOTAL        ACCESS:   11017709 HIT:    6187636 MISS:    4830073 MSHR_MERGE:          0
cpu0->cpu0_L2C LOAD         ACCESS:    6564966 HIT:    1812588 MISS:    4752378 MSHR_MERGE:          0
cpu0->cpu0_L2C RFO          ACCESS:       9630 HIT:       8993 MISS:        637 MSHR_MERGE:          0
cpu0->cpu0_L2C PREFETCH     ACCESS:          0 HIT:          0 MISS:          0 MSHR_MERGE:          0
cpu0->cpu0_L2C WRITE        ACCESS:    4364158 HIT:    4364158 MISS:          0 MSHR_MERGE:          0
cpu0->cpu0_L2C TRANSLATION  ACCESS:      78955 HIT:       1897 MISS:      77058 MSHR_MERGE:          0
cpu0->cpu0_L2C PREFETCH REQUESTED:          0 ISSUED:          0 USEFUL:          0 USELESS:          0
cpu0->cpu0_L2C AVERAGE MISS LATENCY: 217.9 cycles
cpu0->cpu0_L1I TOTAL        ACCESS:   93117916 HIT:   93117506 MISS:        410 MSHR_MERGE:        133
cpu0->cpu0_L1I LOAD         ACCESS:   93117916 HIT:   93117506 MISS:        410 MSHR_MERGE:        133
cpu0->cpu0_L1I RFO          ACCESS:          0 HIT:          0 MISS:          0 MSHR_MERGE:          0
cpu0->cpu0_L1I PREFETCH     ACCESS:          0 HIT:          0 MISS:          0 MSHR_MERGE:          0
cpu0->cpu0_L1I WRITE        ACCESS:          0 HIT:          0 MISS:          0 MSHR_MERGE:          0
cpu0->cpu0_L1I TRANSLATION  ACCESS:          0 HIT:          0 MISS:          0 MSHR_MERGE:          0
cpu0->cpu0_L1I PREFETCH REQUESTED:          0 ISSUED:          0 USEFUL:          0 USELESS:          0
cpu0->cpu0_L1I AVERAGE MISS LATENCY: 215.4 cycles
cpu0->cpu0_L1D TOTAL        ACCESS:  158350365 HIT:  130246772 MISS:   28103593 MSHR_MERGE:   21450319
cpu0->cpu0_L1D LOAD         ACCESS:  123009419 HIT:   95015347 MISS:   27994072 MSHR_MERGE:   21429383
cpu0->cpu0_L1D RFO          ACCESS:          0 HIT:          0 MISS:          0 MSHR_MERGE:          0
cpu0->cpu0_L1D PREFETCH     ACCESS:          0 HIT:          0 MISS:          0 MSHR_MERGE:          0
cpu0->cpu0_L1D WRITE        ACCESS:   35204338 HIT:   35173773 MISS:      30565 MSHR_MERGE:      20935
cpu0->cpu0_L1D TRANSLATION  ACCESS:     136608 HIT:      57652 MISS:      78956 MSHR_MERGE:          1
cpu0->cpu0_L1D PREFETCH REQUESTED:          0 ISSUED:          0 USEFUL:          0 USELESS:          0
cpu0->cpu0_L1D AVERAGE MISS LATENCY: 166.9 cycles
cpu0->cpu0_ITLB TOTAL        ACCESS:   75708872 HIT:   75708847 MISS:         25 MSHR_MERGE:         14
cpu0->cpu0_ITLB LOAD         ACCESS:   75708872 HIT:   75708847 MISS:         25 MSHR_MERGE:         14
cpu0->cpu0_ITLB RFO          ACCESS:          0 HIT:          0 MISS:          0 MSHR_MERGE:          0
cpu0->cpu0_ITLB PREFETCH     ACCESS:          0 HIT:          0 MISS:          0 MSHR_MERGE:          0
cpu0->cpu0_ITLB WRITE        ACCESS:          0 HIT:          0 MISS:          0 MSHR_MERGE:          0
cpu0->cpu0_ITLB TRANSLATION  ACCESS:          0 HIT:          0 MISS:          0 MSHR_MERGE:          0
cpu0->cpu0_ITLB PREFETCH REQUESTED:          0 ISSUED:          0 USEFUL:          0 USELESS:          0
cpu0->cpu0_ITLB AVERAGE MISS LATENCY: 832.7 cycles
cpu0->cpu0_DTLB TOTAL        ACCESS:  148302063 HIT:  147863702 MISS:     438361 MSHR_MERGE:     321938
cpu0->cpu0_DTLB LOAD         ACCESS:  148302063 HIT:  147863702 MISS:     438361 MSHR_MERGE:     321938
cpu0->cpu0_DTLB RFO          ACCESS:          0 HIT:          0 MISS:          0 MSHR_MERGE:          0
cpu0->cpu0_DTLB PREFETCH     ACCESS:          0 HIT:          0 MISS:          0 MSHR_MERGE:          0
cpu0->cpu0_DTLB WRITE        ACCESS:          0 HIT:          0 MISS:          0 MSHR_MERGE:          0
cpu0->cpu0_DTLB TRANSLATION  ACCESS:          0 HIT:          0 MISS:          0 MSHR_MERGE:          0
cpu0->cpu0_DTLB PREFETCH REQUESTED:          0 ISSUED:          0 USEFUL:          0 USELESS:          0
cpu0->cpu0_DTLB AVERAGE MISS LATENCY: 394.8 cycles
cpu0->LLC TOTAL        ACCESS:    9185077 HIT:    4738560 MISS:    4446517 MSHR_MERGE:          0
cpu0->LLC LOAD         ACCESS:    4752378 HIT:     383436 MISS:    4368942 MSHR_MERGE:          0
cpu0->LLC RFO          ACCESS:        637 HIT:        630 MISS:          7 MSHR_MERGE:          0
cpu0->LLC PREFETCH     ACCESS:          0 HIT:          0 MISS:          0 MSHR_MERGE:          0
cpu0->LLC WRITE        ACCESS:    4355004 HIT:    4354482 MISS:        522 MSHR_MERGE:          0
cpu0->LLC TRANSLATION  ACCESS:      77058 HIT:         12 MISS:      77046 MSHR_MERGE:          0
cpu0->LLC PREFETCH REQUESTED:          0 ISSUED:          0 USEFUL:          0 USELESS:          0
cpu0->LLC AVERAGE MISS LATENCY: 219.4 cycles

DRAM Statistics

Channel 0 RQ ROW_BUFFER_HIT:      26281
  ROW_BUFFER_MISS:    4419709
  AVG DBUS CONGESTED CYCLE: 9.896
Channel 0 WQ ROW_BUFFER_HIT:    1768278
  ROW_BUFFER_MISS:    2585478
  FULL:          0
Channel 0 REFRESHES ISSUED:     104994
MPP LLC predicted_reuse: 35928 predicted_dead: 5310962
MPP LLC train_positive: 937 train_negative: 331183
MPP LLC total_evictions: 5314122
