[VMEM] WARNING: physical memory size is smaller than virtual memory size.
WARNING: option --warmup_instructions is deprecated. Use --warmup-instructions instead.
WARNING: option --simulation_instructions is deprecated. Use --simulation-instructions instead.

*** ChampSim Multicore Out-of-Order Simulator ***
Warmup Instructions: 20000000
Simulation Instructions: 50000000
Number of CPUs: 1
Page size: 8192

Off-chip DRAM Size: 16 GiB Channels: 1 Width: 64-bit Data Rate: 3205 MT/s
Heartbeat CPU 0 instructions: 10000000 cycles: 4303215 heartbeat IPC: 2.324 cumulative IPC: 2.324 (Simulation time: 00 hr 00 min 40 sec)
Heartbeat CPU 0 instructions: 20000000 cycles: 8598377 heartbeat IPC: 2.328 cumulative IPC: 2.326 (Simulation time: 00 hr 01 min 19 sec)
Warmup finished CPU 0 instructions: 20000000 cycles: 8598377 cumulative IPC: 2.326 (Simulation time: 00 hr 01 min 19 sec)
Warmup complete CPU 0 instructions: 20000000 cycles: 8598377 cumulative IPC: 2.326 (Simulation time: 00 hr 01 min 19 sec)
Heartbeat CPU 0 instructions: 30000002 cycles: 17132964 heartbeat IPC: 1.172 cumulative IPC: 1.172 (Simulation time: 00 hr 02 min 19 sec)
Heartbeat CPU 0 instructions: 40000003 cycles: 25581507 heartbeat IPC: 1.184 cumulative IPC: 1.178 (Simulation time: 00 hr 03 min 19 sec)
Heartbeat CPU 0 instructions: 50000003 cycles: 34069598 heartbeat IPC: 1.178 cumulative IPC: 1.178 (Simulation time: 00 hr 04 min 19 sec)
Heartbeat CPU 0 instructions: 60000005 cycles: 42545947 heartbeat IPC: 1.18 cumulative IPC: 1.178 (Simulation time: 00 hr 05 min 27 sec)
Simulation finished CPU 0 instructions: 50000000 cycles: 42452746 cumulative IPC: 1.178 (Simulation time: 00 hr 06 min 31 sec)
Simulation complete CPU 0 instructions: 50000000 cycles: 42452746 cumulative IPC: 1.178 (Simulation time: 00 hr 06 min 31 sec)

ChampSim completed all CPUs

=== Simulation ===
CPU 0 runs traces/603.bwaves_s-1740B.champsimtrace.xz

Region of Interest Statistics

CPU 0 cumulative IPC: 1.178 instructions: 50000000 cycles: 42452746
CPU 0 Branch Prediction Accuracy: 99.97% MPKI: 0.00734 Average ROB Occupancy at Mispredict: 189.9
Branch type MPKI
BRANCH_DIRECT_JUMP: 0
BRANCH_INDIRECT: 0
BRANCH_CONDITIONAL: 0.00734
BRANCH_DIRECT_CALL: 0
BRANCH_INDIRECT_CALL: 0
BRANCH_RETURN: 0

cpu0->cpu0_STLB TOTAL        ACCESS:       7425 HIT:        365 MISS:       7060 MSHR_MERGE:          0
cpu0->cpu0_STLB LOAD         ACCESS:       7425 HIT:        365 MISS:       7060 MSHR_MERGE:          0
cpu0->cpu0_STLB RFO          ACCESS:          0 HIT:          0 MISS:          0 MSHR_MERGE:          0
cpu0->cpu0_STLB PREFETCH     ACCESS:          0 HIT:          0 MISS:          0 MSHR_MERGE:          0
cpu0->cpu0_STLB WRITE        ACCESS:          0 HIT:          0 MISS:          0 MSHR_MERGE:          0
cpu0->cpu0_STLB TRANSLATION  ACCESS:          0 HIT:          0 MISS:          0 MSHR_MERGE:          0
cpu0->cpu0_STLB PREFETCH REQUESTED:          0 ISSUED:          0 USEFUL:          0 USELESS:          0
cpu0->cpu0_STLB AVERAGE MISS LATENCY: 692.6 cycles
cpu0->cpu0_L2C TOTAL        ACCESS:    3018682 HIT:    1962240 MISS:    1056442 MSHR_MERGE:      88248
cpu0->cpu0_L2C LOAD         ACCESS:    1020590 HIT:     932570 MISS:      88020 MSHR_MERGE:      50608
cpu0->cpu0_L2C RFO          ACCESS:      32821 HIT:       8459 MISS:      24362 MSHR_MERGE:          0
cpu0->cpu0_L2C PREFETCH     ACCESS:    1915143 HIT:     981623 MISS:     933520 MSHR_MERGE:      37640
cpu0->cpu0_L2C WRITE        ACCESS:      36551 HIT:      36502 MISS:         49 MSHR_MERGE:          0
cpu0->cpu0_L2C TRANSLATION  ACCESS:      13577 HIT:       3086 MISS:      10491 MSHR_MERGE:          0
cpu0->cpu0_L2C PREFETCH REQUESTED:    1976295 ISSUED:    1915143 USEFUL:     895407 USELESS:        437
cpu0->cpu0_L2C AVERAGE MISS LATENCY: 157.8 cycles
cpu0->cpu0_L1I TOTAL        ACCESS:   12011010 HIT:   12011010 MISS:          0 MSHR_MERGE:          0
cpu0->cpu0_L1I LOAD         ACCESS:   12011010 HIT:   12011010 MISS:          0 MSHR_MERGE:          0
cpu0->cpu0_L1I RFO          ACCESS:          0 HIT:          0 MISS:          0 MSHR_MERGE:          0
cpu0->cpu0_L1I PREFETCH     ACCESS:          0 HIT:          0 MISS:          0 MSHR_MERGE:          0
cpu0->cpu0_L1I WRITE        ACCESS:          0 HIT:          0 MISS:          0 MSHR_MERGE:          0
cpu0->cpu0_L1I TRANSLATION  ACCESS:          0 HIT:          0 MISS:          0 MSHR_MERGE:          0
cpu0->cpu0_L1I PREFETCH REQUESTED:          0 ISSUED:          0 USEFUL:          0 USELESS:          0
cpu0->cpu0_L1I AVERAGE MISS LATENCY: - cycles
cpu0->cpu0_L1D TOTAL        ACCESS:   17003437 HIT:   15861787 MISS:    1141650 MSHR_MERGE:      74521
cpu0->cpu0_L1D LOAD         ACCESS:   14172677 HIT:   13103023 MISS:    1069654 MSHR_MERGE:      49014
cpu0->cpu0_L1D RFO          ACCESS:          0 HIT:          0 MISS:          0 MSHR_MERGE:          0
cpu0->cpu0_L1D PREFETCH     ACCESS:          0 HIT:          0 MISS:          0 MSHR_MERGE:          0
cpu0->cpu0_L1D WRITE        ACCESS:    2816699 HIT:    2758481 MISS:      58218 MSHR_MERGE:      25306
cpu0->cpu0_L1D TRANSLATION  ACCESS:      14061 HIT:        283 MISS:      13778 MSHR_MERGE:        201
cpu0->cpu0_L1D PREFETCH REQUESTED:          0 ISSUED:          0 USEFUL:          0 USELESS:          0
cpu0->cpu0_L1D AVERAGE MISS LATENCY: 37.49 cycles
cpu0->cpu0_ITLB TOTAL        ACCESS:   10877904 HIT:   10877904 MISS:          0 MSHR_MERGE:          0
cpu0->cpu0_ITLB LOAD         ACCESS:   10877904 HIT:   10877904 MISS:          0 MSHR_MERGE:          0
cpu0->cpu0_ITLB RFO          ACCESS:          0 HIT:          0 MISS:          0 MSHR_MERGE:          0
cpu0->cpu0_ITLB PREFETCH     ACCESS:          0 HIT:          0 MISS:          0 MSHR_MERGE:          0
cpu0->cpu0_ITLB WRITE        ACCESS:          0 HIT:          0 MISS:          0 MSHR_MERGE:          0
cpu0->cpu0_ITLB TRANSLATION  ACCESS:          0 HIT:          0 MISS:          0 MSHR_MERGE:          0
cpu0->cpu0_ITLB PREFETCH REQUESTED:          0 ISSUED:          0 USEFUL:          0 USELESS:          0
cpu0->cpu0_ITLB AVERAGE MISS LATENCY: - cycles
cpu0->cpu0_DTLB TOTAL        ACCESS:   16353379 HIT:   16340719 MISS:      12660 MSHR_MERGE:       5235
cpu0->cpu0_DTLB LOAD         ACCESS:   16353379 HIT:   16340719 MISS:      12660 MSHR_MERGE:       5235
cpu0->cpu0_DTLB RFO          ACCESS:          0 HIT:          0 MISS:          0 MSHR_MERGE:          0
cpu0->cpu0_DTLB PREFETCH     ACCESS:          0 HIT:          0 MISS:          0 MSHR_MERGE:          0
cpu0->cpu0_DTLB WRITE        ACCESS:          0 HIT:          0 MISS:          0 MSHR_MERGE:          0
cpu0->cpu0_DTLB TRANSLATION  ACCESS:          0 HIT:          0 MISS:          0 MSHR_MERGE:          0
cpu0->cpu0_DTLB PREFETCH REQUESTED:          0 ISSUED:          0 USEFUL:          0 USELESS:          0
cpu0->cpu0_DTLB AVERAGE MISS LATENCY: 663.5 cycles
cpu0->LLC TOTAL        ACCESS:     992658 HIT:      16042 MISS:     976616 MSHR_MERGE:          0
cpu0->LLC LOAD         ACCESS:      37412 HIT:       1254 MISS:      36158 MSHR_MERGE:          0
cpu0->LLC RFO          ACCESS:      24362 HIT:          0 MISS:      24362 MSHR_MERGE:          0
cpu0->LLC PREFETCH     ACCESS:     895879 HIT:       6049 MISS:     889830 MSHR_MERGE:          0
cpu0->LLC WRITE        ACCESS:      24514 HIT:       8696 MISS:      15818 MSHR_MERGE:          0
cpu0->LLC TRANSLATION  ACCESS:      10491 HIT:         43 MISS:      10448 MSHR_MERGE:          0
cpu0->LLC PREFETCH REQUESTED:          0 ISSUED:          0 USEFUL:          0 USELESS:          0
cpu0->LLC AVERAGE MISS LATENCY: 144.3 cycles

DRAM Statistics

Channel 0 RQ ROW_BUFFER_HIT:        717
  ROW_BUFFER_MISS:     960082
  AVG DBUS CONGESTED CYCLE: 4.036
Channel 0 WQ ROW_BUFFER_HIT:       2252
  ROW_BUFFER_MISS:      22348
  FULL:          0
Channel 0 REFRESHES ISSUED:       3538
