[VMEM] WARNING: physical memory size is smaller than virtual memory size.
WARNING: option --warmup_instructions is deprecated. Use --warmup-instructions instead.
WARNING: option --simulation_instructions is deprecated. Use --simulation-instructions instead.

*** ChampSim Multicore Out-of-Order Simulator ***
Warmup Instructions: 20000000
Simulation Instructions: 50000000
Number of CPUs: 1
Page size: 262144

Off-chip DRAM Size: 16 GiB Channels: 1 Width: 64-bit Data Rate: 3205 MT/s
Heartbeat CPU 0 instructions: 10000000 cycles: 4205682 heartbeat IPC: 2.378 cumulative IPC: 2.378 (Simulation time: 00 hr 00 min 50 sec)
Heartbeat CPU 0 instructions: 20000000 cycles: 8407784 heartbeat IPC: 2.38 cumulative IPC: 2.379 (Simulation time: 00 hr 01 min 41 sec)
Warmup finished CPU 0 instructions: 20000000 cycles: 8407784 cumulative IPC: 2.379 (Simulation time: 00 hr 01 min 41 sec)
Warmup complete CPU 0 instructions: 20000000 cycles: 8407784 cumulative IPC: 2.379 (Simulation time: 00 hr 01 min 41 sec)
Heartbeat CPU 0 instructions: 30000002 cycles: 15836141 heartbeat IPC: 1.346 cumulative IPC: 1.346 (Simulation time: 00 hr 02 min 53 sec)
Heartbeat CPU 0 instructions: 40000004 cycles: 23285886 heartbeat IPC: 1.342 cumulative IPC: 1.344 (Simulation time: 00 hr 03 min 59 sec)
Heartbeat CPU 0 instructions: 50000007 cycles: 30731739 heartbeat IPC: 1.343 cumulative IPC: 1.344 (Simulation time: 00 hr 05 min 02 sec)
Heartbeat CPU 0 instructions: 60000010 cycles: 38190591 heartbeat IPC: 1.341 cumulative IPC: 1.343 (Simulation time: 00 hr 06 min 04 sec)
Simulation finished CPU 0 instructions: 50000001 cycles: 37287968 cumulative IPC: 1.341 (Simulation time: 00 hr 07 min 05 sec)
Simulation complete CPU 0 instructions: 50000001 cycles: 37287968 cumulative IPC: 1.341 (Simulation time: 00 hr 07 min 05 sec)

ChampSim completed all CPUs

=== Simulation ===
CPU 0 runs traces/603.bwaves_s-1740B.champsimtrace.xz

Region of Interest Statistics

CPU 0 cumulative IPC: 1.341 instructions: 50000001 cycles: 37287968
CPU 0 Branch Prediction Accuracy: 99.97% MPKI: 0.00734 Average ROB Occupancy at Mispredict: 190
Branch type MPKI
BRANCH_DIRECT_JUMP: 0
BRANCH_INDIRECT: 0
BRANCH_CONDITIONAL: 0.00734
BRANCH_DIRECT_CALL: 0
BRANCH_INDIRECT_CALL: 0
BRANCH_RETURN: 0

cpu0->cpu0_STLB TOTAL        ACCESS:       9992 HIT:       9772 MISS:        220 MSHR_MERGE:          0
cpu0->cpu0_STLB LOAD         ACCESS:       9992 HIT:       9772 MISS:        220 MSHR_MERGE:          0
cpu0->cpu0_STLB RFO          ACCESS:          0 HIT:          0 MISS:          0 MSHR_MERGE:          0
cpu0->cpu0_STLB PREFETCH     ACCESS:          0 HIT:          0 MISS:          0 MSHR_MERGE:          0
cpu0->cpu0_STLB WRITE        ACCESS:          0 HIT:          0 MISS:          0 MSHR_MERGE:          0
cpu0->cpu0_STLB TRANSLATION  ACCESS:          0 HIT:          0 MISS:          0 MSHR_MERGE:          0
cpu0->cpu0_STLB PREFETCH REQUESTED:          0 ISSUED:          0 USEFUL:          0 USELESS:          0
cpu0->cpu0_STLB AVERAGE MISS LATENCY: 764.5 cycles
cpu0->cpu0_L2C TOTAL        ACCESS:    4046211 HIT:    2209569 MISS:    1836642 MSHR_MERGE:     622035
cpu0->cpu0_L2C LOAD         ACCESS:    1019547 HIT:     997655 MISS:      21892 MSHR_MERGE:      14247
cpu0->cpu0_L2C RFO          ACCESS:      32802 HIT:       8440 MISS:      24362 MSHR_MERGE:          0
cpu0->cpu0_L2C PREFETCH     ACCESS:    2956793 HIT:    1166857 MISS:    1789936 MSHR_MERGE:     607788
cpu0->cpu0_L2C WRITE        ACCESS:      36629 HIT:      36617 MISS:         12 MSHR_MERGE:          0
cpu0->cpu0_L2C TRANSLATION  ACCESS:        440 HIT:          0 MISS:        440 MSHR_MERGE:          0
cpu0->cpu0_L2C PREFETCH REQUESTED:    3091328 ISSUED:    2956785 USEFUL:     924652 USELESS:        351
cpu0->cpu0_L2C AVERAGE MISS LATENCY: 125.3 cycles
cpu0->cpu0_L1I TOTAL        ACCESS:   11954508 HIT:   11954508 MISS:          0 MSHR_MERGE:          0
cpu0->cpu0_L1I LOAD         ACCESS:   11954508 HIT:   11954508 MISS:          0 MSHR_MERGE:          0
cpu0->cpu0_L1I RFO          ACCESS:          0 HIT:          0 MISS:          0 MSHR_MERGE:          0
cpu0->cpu0_L1I PREFETCH     ACCESS:          0 HIT:          0 MISS:          0 MSHR_MERGE:          0
cpu0->cpu0_L1I WRITE        ACCESS:          0 HIT:          0 MISS:          0 MSHR_MERGE:          0
cpu0->cpu0_L1I TRANSLATION  ACCESS:          0 HIT:          0 MISS:          0 MSHR_MERGE:          0
cpu0->cpu0_L1I PREFETCH REQUESTED:          0 ISSUED:          0 USEFUL:          0 USELESS:          0
cpu0->cpu0_L1I AVERAGE MISS LATENCY: - cycles
cpu0->cpu0_L1D TOTAL        ACCESS:   16944936 HIT:   15861060 MISS:    1083876 MSHR_MERGE:      30927
cpu0->cpu0_L1D LOAD         ACCESS:   14127797 HIT:   13103989 MISS:    1023808 MSHR_MERGE:       4192
cpu0->cpu0_L1D RFO          ACCESS:          0 HIT:          0 MISS:          0 MSHR_MERGE:          0
cpu0->cpu0_L1D PREFETCH     ACCESS:          0 HIT:          0 MISS:          0 MSHR_MERGE:          0
cpu0->cpu0_L1D WRITE        ACCESS:    2816699 HIT:    2757071 MISS:      59628 MSHR_MERGE:      26735
cpu0->cpu0_L1D TRANSLATION  ACCESS:        440 HIT:          0 MISS:        440 MSHR_MERGE:          0
cpu0->cpu0_L1D PREFETCH REQUESTED:          0 ISSUED:          0 USEFUL:          0 USELESS:          0
cpu0->cpu0_L1D AVERAGE MISS LATENCY: 15.23 cycles
cpu0->cpu0_ITLB TOTAL        ACCESS:   10823519 HIT:   10823519 MISS:          0 MSHR_MERGE:          0
cpu0->cpu0_ITLB LOAD         ACCESS:   10823519 HIT:   10823519 MISS:          0 MSHR_MERGE:          0
cpu0->cpu0_ITLB RFO          ACCESS:          0 HIT:          0 MISS:          0 MSHR_MERGE:          0
cpu0->cpu0_ITLB PREFETCH     ACCESS:          0 HIT:          0 MISS:          0 MSHR_MERGE:          0
cpu0->cpu0_ITLB WRITE        ACCESS:          0 HIT:          0 MISS:          0 MSHR_MERGE:          0
cpu0->cpu0_ITLB TRANSLATION  ACCESS:          0 HIT:          0 MISS:          0 MSHR_MERGE:          0
cpu0->cpu0_ITLB PREFETCH REQUESTED:          0 ISSUED:          0 USEFUL:          0 USELESS:          0
cpu0->cpu0_ITLB AVERAGE MISS LATENCY: - cycles
cpu0->cpu0_DTLB TOTAL        ACCESS:   16274452 HIT:   16264208 MISS:      10244 MSHR_MERGE:        252
cpu0->cpu0_DTLB LOAD         ACCESS:   16274452 HIT:   16264208 MISS:      10244 MSHR_MERGE:        252
cpu0->cpu0_DTLB RFO          ACCESS:          0 HIT:          0 MISS:          0 MSHR_MERGE:          0
cpu0->cpu0_DTLB PREFETCH     ACCESS:          0 HIT:          0 MISS:          0 MSHR_MERGE:          0
cpu0->cpu0_DTLB WRITE        ACCESS:          0 HIT:          0 MISS:          0 MSHR_MERGE:          0
cpu0->cpu0_DTLB TRANSLATION  ACCESS:          0 HIT:          0 MISS:          0 MSHR_MERGE:          0
cpu0->cpu0_DTLB PREFETCH REQUESTED:          0 ISSUED:          0 USEFUL:          0 USELESS:          0
cpu0->cpu0_DTLB AVERAGE MISS LATENCY: 20.86 cycles
cpu0->LLC TOTAL        ACCESS:    1239133 HIT:     212031 MISS:    1027102 MSHR_MERGE:      27805
cpu0->LLC LOAD         ACCESS:       7645 HIT:       6461 MISS:       1184 MSHR_MERGE:         31
cpu0->LLC RFO          ACCESS:      24362 HIT:          0 MISS:      24362 MSHR_MERGE:          0
cpu0->LLC PREFETCH     ACCESS:    1182148 HIT:     205379 MISS:     976769 MSHR_MERGE:      27774
cpu0->LLC WRITE        ACCESS:      24538 HIT:        191 MISS:      24347 MSHR_MERGE:          0
cpu0->LLC TRANSLATION  ACCESS:        440 HIT:          0 MISS:        440 MSHR_MERGE:          0
cpu0->LLC PREFETCH REQUESTED:          0 ISSUED:          0 USEFUL:          0 USELESS:          0
cpu0->LLC AVERAGE MISS LATENCY: 87.15 cycles

DRAM Statistics

Channel 0 RQ ROW_BUFFER_HIT:      15105
  ROW_BUFFER_MISS:     959845
  AVG DBUS CONGESTED CYCLE: 4.094
Channel 0 WQ ROW_BUFFER_HIT:       1974
  ROW_BUFFER_MISS:      23180
  FULL:          0
Channel 0 REFRESHES ISSUED:       3107
