[VMEM] WARNING: physical memory size is smaller than virtual memory size.
WARNING: option --warmup_instructions is deprecated. Use --warmup-instructions instead.
WARNING: option --simulation_instructions is deprecated. Use --simulation-instructions instead.

*** ChampSim Multicore Out-of-Order Simulator ***
Warmup Instructions: 20000000
Simulation Instructions: 50000000
Number of CPUs: 1
Page size: 262144

Off-chip DRAM Size: 16 GiB Channels: 1 Width: 64-bit Data Rate: 3205 MT/s
Heartbeat CPU 0 instructions: 10000000 cycles: 3956214 heartbeat IPC: 2.528 cumulative IPC: 2.528 (Simulation time: 00 hr 00 min 45 sec)
Heartbeat CPU 0 instructions: 20000001 cycles: 7757706 heartbeat IPC: 2.631 cumulative IPC: 2.578 (Simulation time: 00 hr 01 min 30 sec)
Warmup finished CPU 0 instructions: 20000001 cycles: 7757706 cumulative IPC: 2.578 (Simulation time: 00 hr 01 min 30 sec)
Warmup complete CPU 0 instructions: 20000001 cycles: 7757706 cumulative IPC: 2.578 (Simulation time: 00 hr 01 min 30 sec)
Heartbeat CPU 0 instructions: 30000003 cycles: 41957808 heartbeat IPC: 0.2924 cumulative IPC: 0.2924 (Simulation time: 00 hr 03 min 49 sec)
Heartbeat CPU 0 instructions: 40000005 cycles: 76580554 heartbeat IPC: 0.2888 cumulative IPC: 0.2906 (Simulation time: 00 hr 05 min 57 sec)
Heartbeat CPU 0 instructions: 50000006 cycles: 111128429 heartbeat IPC: 0.2895 cumulative IPC: 0.2902 (Simulation time: 00 hr 07 min 51 sec)
Heartbeat CPU 0 instructions: 60000007 cycles: 145105615 heartbeat IPC: 0.2943 cumulative IPC: 0.2912 (Simulation time: 00 hr 09 min 30 sec)
Simulation finished CPU 0 instructions: 50000002 cycles: 172016846 cumulative IPC: 0.2907 (Simulation time: 00 hr 11 min 16 sec)
Simulation complete CPU 0 instructions: 50000002 cycles: 172016846 cumulative IPC: 0.2907 (Simulation time: 00 hr 11 min 16 sec)

ChampSim completed all CPUs

=== Simulation ===
CPU 0 runs traces/473.astar-359B.champsimtrace.xz

Region of Interest Statistics

CPU 0 cumulative IPC: 0.2907 instructions: 50000002 cycles: 172016846
CPU 0 Branch Prediction Accuracy: 93.2% MPKI: 13.43 Average ROB Occupancy at Mispredict: 44.4
Branch type MPKI
BRANCH_DIRECT_JUMP: 0
BRANCH_INDIRECT: 0
BRANCH_CONDITIONAL: 13.42
BRANCH_DIRECT_CALL: 0
BRANCH_INDIRECT_CALL: 0.00054
BRANCH_RETURN: 0

cpu0->cpu0_STLB TOTAL        ACCESS:     554295 HIT:     554295 MISS:          0 MSHR_MERGE:          0
cpu0->cpu0_STLB LOAD         ACCESS:     554295 HIT:     554295 MISS:          0 MSHR_MERGE:          0
cpu0->cpu0_STLB RFO          ACCESS:          0 HIT:          0 MISS:          0 MSHR_MERGE:          0
cpu0->cpu0_STLB PREFETCH     ACCESS:          0 HIT:          0 MISS:          0 MSHR_MERGE:          0
cpu0->cpu0_STLB WRITE        ACCESS:          0 HIT:          0 MISS:          0 MSHR_MERGE:          0
cpu0->cpu0_STLB TRANSLATION  ACCESS:          0 HIT:          0 MISS:          0 MSHR_MERGE:          0
cpu0->cpu0_STLB PREFETCH REQUESTED:          0 ISSUED:          0 USEFUL:          0 USELESS:          0
cpu0->cpu0_STLB AVERAGE MISS LATENCY: - cycles
cpu0->cpu0_L2C TOTAL        ACCESS:    5675845 HIT:    2879514 MISS:    2796331 MSHR_MERGE:      76762
cpu0->cpu0_L2C LOAD         ACCESS:    1760608 HIT:     931970 MISS:     828638 MSHR_MERGE:      22655
cpu0->cpu0_L2C RFO          ACCESS:     766847 HIT:      44373 MISS:     722474 MSHR_MERGE:          0
cpu0->cpu0_L2C PREFETCH     ACCESS:    1979911 HIT:     735308 MISS:    1244603 MSHR_MERGE:      54107
cpu0->cpu0_L2C WRITE        ACCESS:    1168479 HIT:    1167863 MISS:        616 MSHR_MERGE:          0
cpu0->cpu0_L2C TRANSLATION  ACCESS:          0 HIT:          0 MISS:          0 MSHR_MERGE:          0
cpu0->cpu0_L2C PREFETCH REQUESTED:    1998039 ISSUED:    1979911 USEFUL:     290621 USELESS:     681894
cpu0->cpu0_L2C AVERAGE MISS LATENCY: 283 cycles
cpu0->cpu0_L1I TOTAL        ACCESS:     847715 HIT:     847708 MISS:          7 MSHR_MERGE:          0
cpu0->cpu0_L1I LOAD         ACCESS:     847715 HIT:     847708 MISS:          7 MSHR_MERGE:          0
cpu0->cpu0_L1I RFO          ACCESS:          0 HIT:          0 MISS:          0 MSHR_MERGE:          0
cpu0->cpu0_L1I PREFETCH     ACCESS:          0 HIT:          0 MISS:          0 MSHR_MERGE:          0
cpu0->cpu0_L1I WRITE        ACCESS:          0 HIT:          0 MISS:          0 MSHR_MERGE:          0
cpu0->cpu0_L1I TRANSLATION  ACCESS:          0 HIT:          0 MISS:          0 MSHR_MERGE:          0
cpu0->cpu0_L1I PREFETCH REQUESTED:          0 ISSUED:          0 USEFUL:          0 USELESS:          0
cpu0->cpu0_L1I AVERAGE MISS LATENCY: 168.3 cycles
cpu0->cpu0_L1D TOTAL        ACCESS:   19078879 HIT:   15981023 MISS:    3097856 MSHR_MERGE:     570406
cpu0->cpu0_L1D LOAD         ACCESS:   12764017 HIT:   10433111 MISS:    2330906 MSHR_MERGE:     570305
cpu0->cpu0_L1D RFO          ACCESS:          0 HIT:          0 MISS:          0 MSHR_MERGE:          0
cpu0->cpu0_L1D PREFETCH     ACCESS:          0 HIT:          0 MISS:          0 MSHR_MERGE:          0
cpu0->cpu0_L1D WRITE        ACCESS:    6314862 HIT:    5547912 MISS:     766950 MSHR_MERGE:        101
cpu0->cpu0_L1D TRANSLATION  ACCESS:          0 HIT:          0 MISS:          0 MSHR_MERGE:          0
cpu0->cpu0_L1D PREFETCH REQUESTED:          0 ISSUED:          0 USEFUL:          0 USELESS:          0
cpu0->cpu0_L1D AVERAGE MISS LATENCY: 183.4 cycles
cpu0->cpu0_ITLB TOTAL        ACCESS:     845500 HIT:     845500 MISS:          0 MSHR_MERGE:          0
cpu0->cpu0_ITLB LOAD         ACCESS:     845500 HIT:     845500 MISS:          0 MSHR_MERGE:          0
cpu0->cpu0_ITLB RFO          ACCESS:          0 HIT:          0 MISS:          0 MSHR_MERGE:          0
cpu0->cpu0_ITLB PREFETCH     ACCESS:          0 HIT:          0 MISS:          0 MSHR_MERGE:          0
cpu0->cpu0_ITLB WRITE        ACCESS:          0 HIT:          0 MISS:          0 MSHR_MERGE:          0
cpu0->cpu0_ITLB TRANSLATION  ACCESS:          0 HIT:          0 MISS:          0 MSHR_MERGE:          0
cpu0->cpu0_ITLB PREFETCH REQUESTED:          0 ISSUED:          0 USEFUL:          0 USELESS:          0
cpu0->cpu0_ITLB AVERAGE MISS LATENCY: - cycles
cpu0->cpu0_DTLB TOTAL        ACCESS:   18170612 HIT:   17423238 MISS:     747374 MSHR_MERGE:     193079
cpu0->cpu0_DTLB LOAD         ACCESS:   18170612 HIT:   17423238 MISS:     747374 MSHR_MERGE:     193079
cpu0->cpu0_DTLB RFO          ACCESS:          0 HIT:          0 MISS:          0 MSHR_MERGE:          0
cpu0->cpu0_DTLB PREFETCH     ACCESS:          0 HIT:          0 MISS:          0 MSHR_MERGE:          0
cpu0->cpu0_DTLB WRITE        ACCESS:          0 HIT:          0 MISS:          0 MSHR_MERGE:          0
cpu0->cpu0_DTLB TRANSLATION  ACCESS:          0 HIT:          0 MISS:          0 MSHR_MERGE:          0
cpu0->cpu0_DTLB PREFETCH REQUESTED:          0 ISSUED:          0 USEFUL:          0 USELESS:          0
cpu0->cpu0_DTLB AVERAGE MISS LATENCY: 4 cycles
cpu0->LLC TOTAL        ACCESS:    3841793 HIT:    1065338 MISS:    2776455 MSHR_MERGE:      43080
cpu0->LLC LOAD         ACCESS:     805983 HIT:     259524 MISS:     546459 MSHR_MERGE:       6427
cpu0->LLC RFO          ACCESS:     722471 HIT:     190783 MISS:     531688 MSHR_MERGE:          0
cpu0->LLC PREFETCH     ACCESS:    1190496 HIT:     254381 MISS:     936115 MSHR_MERGE:      36653
cpu0->LLC WRITE        ACCESS:    1122843 HIT:     360650 MISS:     762193 MSHR_MERGE:          0
cpu0->LLC TRANSLATION  ACCESS:          0 HIT:          0 MISS:          0 MSHR_MERGE:          0
cpu0->LLC PREFETCH REQUESTED:          0 ISSUED:          0 USEFUL:          0 USELESS:          0
cpu0->LLC AVERAGE MISS LATENCY: 226.6 cycles

DRAM Statistics

Channel 0 RQ ROW_BUFFER_HIT:      91332
  ROW_BUFFER_MISS:    1878136
  AVG DBUS CONGESTED CYCLE: 19.8
Channel 0 WQ ROW_BUFFER_HIT:     138714
  ROW_BUFFER_MISS:     668801
  FULL:      14813
Channel 0 REFRESHES ISSUED:      14335
