[VMEM] WARNING: physical memory size is smaller than virtual memory size.
WARNING: option --warmup_instructions is deprecated. Use --warmup-instructions instead.
WARNING: option --simulation_instructions is deprecated. Use --simulation-instructions instead.

*** ChampSim Multicore Out-of-Order Simulator ***
Warmup Instructions: 20000000
Simulation Instructions: 50000000
Number of CPUs: 1
Page size: 8192

Off-chip DRAM Size: 16 GiB Channels: 1 Width: 64-bit Data Rate: 3205 MT/s
Heartbeat CPU 0 instructions: 10000000 cycles: 4308551 heartbeat IPC: 2.321 cumulative IPC: 2.321 (Simulation time: 00 hr 00 min 51 sec)
Heartbeat CPU 0 instructions: 20000000 cycles: 8607914 heartbeat IPC: 2.326 cumulative IPC: 2.323 (Simulation time: 00 hr 01 min 40 sec)
Warmup finished CPU 0 instructions: 20000000 cycles: 8607914 cumulative IPC: 2.323 (Simulation time: 00 hr 01 min 40 sec)
Warmup complete CPU 0 instructions: 20000000 cycles: 8607914 cumulative IPC: 2.323 (Simulation time: 00 hr 01 min 40 sec)
Heartbeat CPU 0 instructions: 30000002 cycles: 17432327 heartbeat IPC: 1.133 cumulative IPC: 1.133 (Simulation time: 00 hr 02 min 58 sec)
Heartbeat CPU 0 instructions: 40000002 cycles: 26286456 heartbeat IPC: 1.129 cumulative IPC: 1.131 (Simulation time: 00 hr 04 min 17 sec)
Heartbeat CPU 0 instructions: 50000003 cycles: 35121747 heartbeat IPC: 1.132 cumulative IPC: 1.131 (Simulation time: 00 hr 05 min 35 sec)
Heartbeat CPU 0 instructions: 60000005 cycles: 43986622 heartbeat IPC: 1.128 cumulative IPC: 1.131 (Simulation time: 00 hr 06 min 54 sec)
Simulation finished CPU 0 instructions: 50000000 cycles: 44224536 cumulative IPC: 1.131 (Simulation time: 00 hr 08 min 11 sec)
Simulation complete CPU 0 instructions: 50000000 cycles: 44224536 cumulative IPC: 1.131 (Simulation time: 00 hr 08 min 11 sec)

ChampSim completed all CPUs

=== Simulation ===
CPU 0 runs traces/603.bwaves_s-1740B.champsimtrace.xz

Region of Interest Statistics

CPU 0 cumulative IPC: 1.131 instructions: 50000000 cycles: 44224536
CPU 0 Branch Prediction Accuracy: 99.97% MPKI: 0.00734 Average ROB Occupancy at Mispredict: 190
Branch type MPKI
BRANCH_DIRECT_JUMP: 0
BRANCH_INDIRECT: 0
BRANCH_CONDITIONAL: 0.00734
BRANCH_DIRECT_CALL: 0
BRANCH_INDIRECT_CALL: 0
BRANCH_RETURN: 0

cpu0->cpu0_STLB TOTAL        ACCESS:       7425 HIT:        365 MISS:       7060 MSHR_MERGE:          0
cpu0->cpu0_STLB LOAD         ACCESS:       7425 HIT:        365 MISS:       7060 MSHR_MERGE:          0
cpu0->cpu0_STLB RFO          ACCESS:          0 HIT:          0 MISS:          0 MSHR_MERGE:          0
cpu0->cpu0_STLB PREFETCH     ACCESS:          0 HIT:          0 MISS:          0 MSHR_MERGE:          0
cpu0->cpu0_STLB WRITE        ACCESS:          0 HIT:          0 MISS:          0 MSHR_MERGE:          0
cpu0->cpu0_STLB TRANSLATION  ACCESS:          0 HIT:          0 MISS:          0 MSHR_MERGE:          0
cpu0->cpu0_STLB PREFETCH REQUESTED:          0 ISSUED:          0 USEFUL:          0 USELESS:          0
cpu0->cpu0_STLB AVERAGE MISS LATENCY: 713.2 cycles
cpu0->cpu0_L2C TOTAL        ACCESS:    3413687 HIT:    2042500 MISS:    1371187 MSHR_MERGE:     379398
cpu0->cpu0_L2C LOAD         ACCESS:    1020338 HIT:     888063 MISS:     132275 MSHR_MERGE:     109285
cpu0->cpu0_L2C RFO          ACCESS:      32835 HIT:       8473 MISS:      24362 MSHR_MERGE:          0
cpu0->cpu0_L2C PREFETCH     ACCESS:    2310469 HIT:    1106586 MISS:    1203883 MSHR_MERGE:     270113
cpu0->cpu0_L2C WRITE        ACCESS:      36551 HIT:      36256 MISS:        295 MSHR_MERGE:          0
cpu0->cpu0_L2C TRANSLATION  ACCESS:      13494 HIT:       3122 MISS:      10372 MSHR_MERGE:          0
cpu0->cpu0_L2C PREFETCH REQUESTED:    2524128 ISSUED:    2310455 USEFUL:     911646 USELESS:      22113
cpu0->cpu0_L2C AVERAGE MISS LATENCY: 132.6 cycles
cpu0->cpu0_L1I TOTAL        ACCESS:   12005918 HIT:   12005918 MISS:          0 MSHR_MERGE:          0
cpu0->cpu0_L1I LOAD         ACCESS:   12005918 HIT:   12005918 MISS:          0 MSHR_MERGE:          0
cpu0->cpu0_L1I RFO          ACCESS:          0 HIT:          0 MISS:          0 MSHR_MERGE:          0
cpu0->cpu0_L1I PREFETCH     ACCESS:          0 HIT:          0 MISS:          0 MSHR_MERGE:          0
cpu0->cpu0_L1I WRITE        ACCESS:          0 HIT:          0 MISS:          0 MSHR_MERGE:          0
cpu0->cpu0_L1I TRANSLATION  ACCESS:          0 HIT:          0 MISS:          0 MSHR_MERGE:          0
cpu0->cpu0_L1I PREFETCH REQUESTED:          0 ISSUED:          0 USEFUL:          0 USELESS:          0
cpu0->cpu0_L1I AVERAGE MISS LATENCY: - cycles
cpu0->cpu0_L1D TOTAL        ACCESS:   17045854 HIT:   15889612 MISS:    1156242 MSHR_MERGE:      89429
cpu0->cpu0_L1D LOAD         ACCESS:   14215110 HIT:   13129905 MISS:    1085205 MSHR_MERGE:      64807
cpu0->cpu0_L1D RFO          ACCESS:          0 HIT:          0 MISS:          0 MSHR_MERGE:          0
cpu0->cpu0_L1D PREFETCH     ACCESS:          0 HIT:          0 MISS:          0 MSHR_MERGE:          0
cpu0->cpu0_L1D WRITE        ACCESS:    2816699 HIT:    2759417 MISS:      57282 MSHR_MERGE:      24361
cpu0->cpu0_L1D TRANSLATION  ACCESS:      14045 HIT:        290 MISS:      13755 MSHR_MERGE:        261
cpu0->cpu0_L1D PREFETCH REQUESTED:          0 ISSUED:          0 USEFUL:          0 USELESS:          0
cpu0->cpu0_L1D AVERAGE MISS LATENCY: 39.45 cycles
cpu0->cpu0_ITLB TOTAL        ACCESS:   10869822 HIT:   10869822 MISS:          0 MSHR_MERGE:          0
cpu0->cpu0_ITLB LOAD         ACCESS:   10869822 HIT:   10869822 MISS:          0 MSHR_MERGE:          0
cpu0->cpu0_ITLB RFO          ACCESS:          0 HIT:          0 MISS:          0 MSHR_MERGE:          0
cpu0->cpu0_ITLB PREFETCH     ACCESS:          0 HIT:          0 MISS:          0 MSHR_MERGE:          0
cpu0->cpu0_ITLB WRITE        ACCESS:          0 HIT:          0 MISS:          0 MSHR_MERGE:          0
cpu0->cpu0_ITLB TRANSLATION  ACCESS:          0 HIT:          0 MISS:          0 MSHR_MERGE:          0
cpu0->cpu0_ITLB PREFETCH REQUESTED:          0 ISSUED:          0 USEFUL:          0 USELESS:          0
cpu0->cpu0_ITLB AVERAGE MISS LATENCY: - cycles
cpu0->cpu0_DTLB TOTAL        ACCESS:   16386021 HIT:   16374231 MISS:      11790 MSHR_MERGE:       4365
cpu0->cpu0_DTLB LOAD         ACCESS:   16386021 HIT:   16374231 MISS:      11790 MSHR_MERGE:       4365
cpu0->cpu0_DTLB RFO          ACCESS:          0 HIT:          0 MISS:          0 MSHR_MERGE:          0
cpu0->cpu0_DTLB PREFETCH     ACCESS:          0 HIT:          0 MISS:          0 MSHR_MERGE:          0
cpu0->cpu0_DTLB WRITE        ACCESS:          0 HIT:          0 MISS:          0 MSHR_MERGE:          0
cpu0->cpu0_DTLB TRANSLATION  ACCESS:          0 HIT:          0 MISS:          0 MSHR_MERGE:          0
cpu0->cpu0_DTLB PREFETCH REQUESTED:          0 ISSUED:          0 USEFUL:          0 USELESS:          0
cpu0->cpu0_DTLB AVERAGE MISS LATENCY: 683.1 cycles
cpu0->LLC TOTAL        ACCESS:    1016257 HIT:       4933 MISS:    1011324 MSHR_MERGE:          0
cpu0->LLC LOAD         ACCESS:      22990 HIT:        310 MISS:      22680 MSHR_MERGE:          0
cpu0->LLC RFO          ACCESS:      24362 HIT:          0 MISS:      24362 MSHR_MERGE:          0
cpu0->LLC PREFETCH     ACCESS:     933770 HIT:       1727 MISS:     932043 MSHR_MERGE:          0
cpu0->LLC WRITE        ACCESS:      24763 HIT:       2886 MISS:      21877 MSHR_MERGE:          0
cpu0->LLC TRANSLATION  ACCESS:      10372 HIT:         10 MISS:      10362 MSHR_MERGE:          0
cpu0->LLC PREFETCH REQUESTED:          0 ISSUED:          0 USEFUL:          0 USELESS:          0
cpu0->LLC AVERAGE MISS LATENCY: 121.4 cycles

DRAM Statistics

Channel 0 RQ ROW_BUFFER_HIT:       1000
  ROW_BUFFER_MISS:     988446
  AVG DBUS CONGESTED CYCLE: 4.319
Channel 0 WQ ROW_BUFFER_HIT:       2599
  ROW_BUFFER_MISS:      21817
  FULL:          0
Channel 0 REFRESHES ISSUED:       3685
