[VMEM] WARNING: physical memory size is smaller than virtual memory size.
WARNING: option --warmup_instructions is deprecated. Use --warmup-instructions instead.
WARNING: option --simulation_instructions is deprecated. Use --simulation-instructions instead.

*** ChampSim Multicore Out-of-Order Simulator ***
Warmup Instructions: 20000000
Simulation Instructions: 50000000
Number of CPUs: 1
Page size: 8192

Off-chip DRAM Size: 16 GiB Channels: 1 Width: 64-bit Data Rate: 3205 MT/s
Heartbeat CPU 0 instructions: 10000000 cycles: 6996230 heartbeat IPC: 1.429 cumulative IPC: 1.429 (Simulation time: 00 hr 02 min 26 sec)
Heartbeat CPU 0 instructions: 20000001 cycles: 11080007 heartbeat IPC: 2.449 cumulative IPC: 1.805 (Simulation time: 00 hr 04 min 28 sec)
Warmup finished CPU 0 instructions: 20000001 cycles: 11080007 cumulative IPC: 1.805 (Simulation time: 00 hr 04 min 28 sec)
Warmup complete CPU 0 instructions: 20000001 cycles: 11080007 cumulative IPC: 1.805 (Simulation time: 00 hr 04 min 28 sec)
Heartbeat CPU 0 instructions: 30000003 cycles: 68478274 heartbeat IPC: 0.1742 cumulative IPC: 0.1742 (Simulation time: 00 hr 15 min 26 sec)
Heartbeat CPU 0 instructions: 40000005 cycles: 126645458 heartbeat IPC: 0.1719 cumulative IPC: 0.1731 (Simulation time: 00 hr 26 min 52 sec)
Heartbeat CPU 0 instructions: 50000006 cycles: 184948115 heartbeat IPC: 0.1715 cumulative IPC: 0.1725 (Simulation time: 00 hr 38 min 41 sec)
Heartbeat CPU 0 instructions: 60000007 cycles: 243031180 heartbeat IPC: 0.1722 cumulative IPC: 0.1725 (Simulation time: 00 hr 50 min 17 sec)
Simulation finished CPU 0 instructions: 50000002 cycles: 288946322 cumulative IPC: 0.173 (Simulation time: 01 hr 01 min 40 sec)
Simulation complete CPU 0 instructions: 50000002 cycles: 288946322 cumulative IPC: 0.173 (Simulation time: 01 hr 01 min 40 sec)

ChampSim completed all CPUs

=== Simulation ===
CPU 0 runs traces/A2/473.astar-359B.champsimtrace.xz

Region of Interest Statistics

CPU 0 cumulative IPC: 0.173 instructions: 50000002 cycles: 288946322
CPU 0 Branch Prediction Accuracy: 93.2% MPKI: 13.43 Average ROB Occupancy at Mispredict: 44.43
Branch type MPKI
BRANCH_DIRECT_JUMP: 0
BRANCH_INDIRECT: 0
BRANCH_CONDITIONAL: 13.42
BRANCH_DIRECT_CALL: 0
BRANCH_INDIRECT_CALL: 0.00054
BRANCH_RETURN: 0

cpu0->cpu0_STLB TOTAL        ACCESS:    1275621 HIT:     889356 MISS:     386265 MSHR_MERGE:          0
cpu0->cpu0_STLB LOAD         ACCESS:    1275621 HIT:     889356 MISS:     386265 MSHR_MERGE:          0
cpu0->cpu0_STLB RFO          ACCESS:          0 HIT:          0 MISS:          0 MSHR_MERGE:          0
cpu0->cpu0_STLB PREFETCH     ACCESS:          0 HIT:          0 MISS:          0 MSHR_MERGE:          0
cpu0->cpu0_STLB WRITE        ACCESS:          0 HIT:          0 MISS:          0 MSHR_MERGE:          0
cpu0->cpu0_STLB TRANSLATION  ACCESS:          0 HIT:          0 MISS:          0 MSHR_MERGE:          0
cpu0->cpu0_STLB PREFETCH REQUESTED:          0 ISSUED:          0 USEFUL:          0 USELESS:          0
cpu0->cpu0_STLB AVERAGE MISS LATENCY: 632.9 cycles
cpu0->cpu0_L2C TOTAL        ACCESS:    4748282 HIT:    2083233 MISS:    2665049 MSHR_MERGE:       4628
cpu0->cpu0_L2C LOAD         ACCESS:    1775430 HIT:     736530 MISS:    1038900 MSHR_MERGE:        332
cpu0->cpu0_L2C RFO          ACCESS:     767641 HIT:      48543 MISS:     719098 MSHR_MERGE:          0
cpu0->cpu0_L2C PREFETCH     ACCESS:     386375 HIT:     121327 MISS:     265048 MSHR_MERGE:       4296
cpu0->cpu0_L2C WRITE        ACCESS:    1168872 HIT:    1168837 MISS:         35 MSHR_MERGE:          0
cpu0->cpu0_L2C TRANSLATION  ACCESS:     649964 HIT:       7996 MISS:     641968 MSHR_MERGE:          0
cpu0->cpu0_L2C PREFETCH REQUESTED:     386375 ISSUED:     386375 USEFUL:       5287 USELESS:       7150
cpu0->cpu0_L2C AVERAGE MISS LATENCY: 289.1 cycles
cpu0->cpu0_L1I TOTAL        ACCESS:     855848 HIT:     855841 MISS:          7 MSHR_MERGE:          0
cpu0->cpu0_L1I LOAD         ACCESS:     855848 HIT:     855841 MISS:          7 MSHR_MERGE:          0
cpu0->cpu0_L1I RFO          ACCESS:          0 HIT:          0 MISS:          0 MSHR_MERGE:          0
cpu0->cpu0_L1I PREFETCH     ACCESS:          0 HIT:          0 MISS:          0 MSHR_MERGE:          0
cpu0->cpu0_L1I WRITE        ACCESS:          0 HIT:          0 MISS:          0 MSHR_MERGE:          0
cpu0->cpu0_L1I TRANSLATION  ACCESS:          0 HIT:          0 MISS:          0 MSHR_MERGE:          0
cpu0->cpu0_L1I PREFETCH REQUESTED:          0 ISSUED:          0 USEFUL:          0 USELESS:          0
cpu0->cpu0_L1I AVERAGE MISS LATENCY: 177.7 cycles
cpu0->cpu0_L1D TOTAL        ACCESS:   19839049 HIT:   15947366 MISS:    3891683 MSHR_MERGE:     698651
cpu0->cpu0_L1D LOAD         ACCESS:   12747055 HIT:   10366779 MISS:    2380276 MSHR_MERGE:     604850
cpu0->cpu0_L1D RFO          ACCESS:          0 HIT:          0 MISS:          0 MSHR_MERGE:          0
cpu0->cpu0_L1D PREFETCH     ACCESS:          0 HIT:          0 MISS:          0 MSHR_MERGE:          0
cpu0->cpu0_L1D WRITE        ACCESS:    6314674 HIT:    5546953 MISS:     767721 MSHR_MERGE:         79
cpu0->cpu0_L1D TRANSLATION  ACCESS:     777320 HIT:      33634 MISS:     743686 MSHR_MERGE:      93722
cpu0->cpu0_L1D PREFETCH REQUESTED:          0 ISSUED:          0 USEFUL:          0 USELESS:          0
cpu0->cpu0_L1D AVERAGE MISS LATENCY: 226.2 cycles
cpu0->cpu0_ITLB TOTAL        ACCESS:     853260 HIT:     853260 MISS:          0 MSHR_MERGE:          0
cpu0->cpu0_ITLB LOAD         ACCESS:     853260 HIT:     853260 MISS:          0 MSHR_MERGE:          0
cpu0->cpu0_ITLB RFO          ACCESS:          0 HIT:          0 MISS:          0 MSHR_MERGE:          0
cpu0->cpu0_ITLB PREFETCH     ACCESS:          0 HIT:          0 MISS:          0 MSHR_MERGE:          0
cpu0->cpu0_ITLB WRITE        ACCESS:          0 HIT:          0 MISS:          0 MSHR_MERGE:          0
cpu0->cpu0_ITLB TRANSLATION  ACCESS:          0 HIT:          0 MISS:          0 MSHR_MERGE:          0
cpu0->cpu0_ITLB PREFETCH REQUESTED:          0 ISSUED:          0 USEFUL:          0 USELESS:          0
cpu0->cpu0_ITLB AVERAGE MISS LATENCY: - cycles
cpu0->cpu0_DTLB TOTAL        ACCESS:   18144438 HIT:   16257096 MISS:    1887342 MSHR_MERGE:     611721
cpu0->cpu0_DTLB LOAD         ACCESS:   18144438 HIT:   16257096 MISS:    1887342 MSHR_MERGE:     611721
cpu0->cpu0_DTLB RFO          ACCESS:          0 HIT:          0 MISS:          0 MSHR_MERGE:          0
cpu0->cpu0_DTLB PREFETCH     ACCESS:          0 HIT:          0 MISS:          0 MSHR_MERGE:          0
cpu0->cpu0_DTLB WRITE        ACCESS:          0 HIT:          0 MISS:          0 MSHR_MERGE:          0
cpu0->cpu0_DTLB TRANSLATION  ACCESS:          0 HIT:          0 MISS:          0 MSHR_MERGE:          0
cpu0->cpu0_DTLB PREFETCH REQUESTED:          0 ISSUED:          0 USEFUL:          0 USELESS:          0
cpu0->cpu0_DTLB AVERAGE MISS LATENCY: 196 cycles
cpu0->LLC TOTAL        ACCESS:    3779475 HIT:    1413632 MISS:    2365843 MSHR_MERGE:      63117
cpu0->LLC LOAD         ACCESS:    1038568 HIT:     118673 MISS:     919895 MSHR_MERGE:       4484
cpu0->LLC RFO          ACCESS:     719097 HIT:      26647 MISS:     692450 MSHR_MERGE:          0
cpu0->LLC PREFETCH     ACCESS:     260749 HIT:     106757 MISS:     153992 MSHR_MERGE:      58633
cpu0->LLC WRITE        ACCESS:    1119093 HIT:    1118070 MISS:       1023 MSHR_MERGE:          0
cpu0->LLC TRANSLATION  ACCESS:     641968 HIT:      43485 MISS:     598483 MSHR_MERGE:          0
cpu0->LLC PREFETCH REQUESTED:          0 ISSUED:          0 USEFUL:          0 USELESS:          0
cpu0->LLC AVERAGE MISS LATENCY: 295.3 cycles

DRAM Statistics

Channel 0 RQ ROW_BUFFER_HIT:      75210
  ROW_BUFFER_MISS:    2226225
  AVG DBUS CONGESTED CYCLE: 20.44
Channel 0 WQ ROW_BUFFER_HIT:     210497
  ROW_BUFFER_MISS:     877699
  FULL:          0
Channel 0 REFRESHES ISSUED:      24079
