[VMEM] WARNING: physical memory size is smaller than virtual memory size.
WARNING: option --warmup_instructions is deprecated. Use --warmup-instructions instead.
WARNING: option --simulation_instructions is deprecated. Use --simulation-instructions instead.

*** ChampSim Multicore Out-of-Order Simulator ***
Warmup Instructions: 20000000
Simulation Instructions: 50000000
Number of CPUs: 1
Page size: 8192

Off-chip DRAM Size: 16 GiB Channels: 1 Width: 64-bit Data Rate: 3205 MT/s
Heartbeat CPU 0 instructions: 10000001 cycles: 4631832 heartbeat IPC: 2.159 cumulative IPC: 2.159 (Simulation time: 00 hr 01 min 53 sec)
Heartbeat CPU 0 instructions: 20000002 cycles: 9209629 heartbeat IPC: 2.184 cumulative IPC: 2.172 (Simulation time: 00 hr 03 min 47 sec)
Warmup finished CPU 0 instructions: 20000002 cycles: 9209629 cumulative IPC: 2.172 (Simulation time: 00 hr 03 min 47 sec)
Warmup complete CPU 0 instructions: 20000002 cycles: 9209629 cumulative IPC: 2.172 (Simulation time: 00 hr 03 min 47 sec)
Heartbeat CPU 0 instructions: 30000005 cycles: 36108940 heartbeat IPC: 0.3718 cumulative IPC: 0.3718 (Simulation time: 00 hr 09 min 03 sec)
Heartbeat CPU 0 instructions: 40000005 cycles: 63055190 heartbeat IPC: 0.3711 cumulative IPC: 0.3714 (Simulation time: 00 hr 14 min 15 sec)
Heartbeat CPU 0 instructions: 50000007 cycles: 90386813 heartbeat IPC: 0.3659 cumulative IPC: 0.3696 (Simulation time: 00 hr 19 min 29 sec)
Heartbeat CPU 0 instructions: 60000007 cycles: 117609469 heartbeat IPC: 0.3673 cumulative IPC: 0.369 (Simulation time: 00 hr 24 min 42 sec)
Simulation finished CPU 0 instructions: 50000002 cycles: 136042333 cumulative IPC: 0.3675 (Simulation time: 00 hr 30 min 00 sec)
Simulation complete CPU 0 instructions: 50000002 cycles: 136042333 cumulative IPC: 0.3675 (Simulation time: 00 hr 30 min 00 sec)

ChampSim completed all CPUs

=== Simulation ===
CPU 0 runs traces/A2/605.mcf_s-1152B.champsimtrace.xz

Region of Interest Statistics

CPU 0 cumulative IPC: 0.3675 instructions: 50000002 cycles: 136042333
CPU 0 Branch Prediction Accuracy: 90.19% MPKI: 24.48 Average ROB Occupancy at Mispredict: 21.31
Branch type MPKI
BRANCH_DIRECT_JUMP: 0.2057
BRANCH_INDIRECT: 0
BRANCH_CONDITIONAL: 24.27
BRANCH_DIRECT_CALL: 0
BRANCH_INDIRECT_CALL: 0.0036
BRANCH_RETURN: 2e-05

cpu0->cpu0_STLB TOTAL        ACCESS:    1006225 HIT:    1000468 MISS:       5757 MSHR_MERGE:          0
cpu0->cpu0_STLB LOAD         ACCESS:    1006225 HIT:    1000468 MISS:       5757 MSHR_MERGE:          0
cpu0->cpu0_STLB RFO          ACCESS:          0 HIT:          0 MISS:          0 MSHR_MERGE:          0
cpu0->cpu0_STLB PREFETCH     ACCESS:          0 HIT:          0 MISS:          0 MSHR_MERGE:          0
cpu0->cpu0_STLB WRITE        ACCESS:          0 HIT:          0 MISS:          0 MSHR_MERGE:          0
cpu0->cpu0_STLB TRANSLATION  ACCESS:          0 HIT:          0 MISS:          0 MSHR_MERGE:          0
cpu0->cpu0_STLB PREFETCH REQUESTED:          0 ISSUED:          0 USEFUL:          0 USELESS:          0
cpu0->cpu0_STLB AVERAGE MISS LATENCY: 610.4 cycles
cpu0->cpu0_L2C TOTAL        ACCESS:    4510207 HIT:    2000116 MISS:    2510091 MSHR_MERGE:     229170
cpu0->cpu0_L2C LOAD         ACCESS:    2552747 HIT:     977040 MISS:    1575707 MSHR_MERGE:      35321
cpu0->cpu0_L2C RFO          ACCESS:     187389 HIT:      53226 MISS:     134163 MSHR_MERGE:          0
cpu0->cpu0_L2C PREFETCH     ACCESS:    1495930 HIT:     702832 MISS:     793098 MSHR_MERGE:     193849
cpu0->cpu0_L2C WRITE        ACCESS:     265791 HIT:     265473 MISS:        318 MSHR_MERGE:          0
cpu0->cpu0_L2C TRANSLATION  ACCESS:       8350 HIT:       1545 MISS:       6805 MSHR_MERGE:          0
cpu0->cpu0_L2C PREFETCH REQUESTED:    1495930 ISSUED:    1495930 USEFUL:     594374 USELESS:       1900
cpu0->cpu0_L2C AVERAGE MISS LATENCY: 47.09 cycles
cpu0->cpu0_L1I TOTAL        ACCESS:     433117 HIT:     433117 MISS:          0 MSHR_MERGE:          0
cpu0->cpu0_L1I LOAD         ACCESS:     433117 HIT:     433117 MISS:          0 MSHR_MERGE:          0
cpu0->cpu0_L1I RFO          ACCESS:          0 HIT:          0 MISS:          0 MSHR_MERGE:          0
cpu0->cpu0_L1I PREFETCH     ACCESS:          0 HIT:          0 MISS:          0 MSHR_MERGE:          0
cpu0->cpu0_L1I WRITE        ACCESS:          0 HIT:          0 MISS:          0 MSHR_MERGE:          0
cpu0->cpu0_L1I TRANSLATION  ACCESS:          0 HIT:          0 MISS:          0 MSHR_MERGE:          0
cpu0->cpu0_L1I PREFETCH REQUESTED:          0 ISSUED:          0 USEFUL:          0 USELESS:          0
cpu0->cpu0_L1I AVERAGE MISS LATENCY: - cycles
cpu0->cpu0_L1D TOTAL        ACCESS:   17985398 HIT:   14406480 MISS:    3578918 MSHR_MERGE:     830428
cpu0->cpu0_L1D LOAD         ACCESS:   12809533 HIT:    9719498 MISS:    3090035 MSHR_MERGE:     537287
cpu0->cpu0_L1D RFO          ACCESS:          0 HIT:          0 MISS:          0 MSHR_MERGE:          0
cpu0->cpu0_L1D PREFETCH     ACCESS:          0 HIT:          0 MISS:          0 MSHR_MERGE:          0
cpu0->cpu0_L1D WRITE        ACCESS:    5164255 HIT:    4683722 MISS:     480533 MSHR_MERGE:     293141
cpu0->cpu0_L1D TRANSLATION  ACCESS:      11610 HIT:       3260 MISS:       8350 MSHR_MERGE:          0
cpu0->cpu0_L1D PREFETCH REQUESTED:          0 ISSUED:          0 USEFUL:          0 USELESS:          0
cpu0->cpu0_L1D AVERAGE MISS LATENCY: 38.05 cycles
cpu0->cpu0_ITLB TOTAL        ACCESS:     401902 HIT:     401902 MISS:          0 MSHR_MERGE:          0
cpu0->cpu0_ITLB LOAD         ACCESS:     401902 HIT:     401902 MISS:          0 MSHR_MERGE:          0
cpu0->cpu0_ITLB RFO          ACCESS:          0 HIT:          0 MISS:          0 MSHR_MERGE:          0
cpu0->cpu0_ITLB PREFETCH     ACCESS:          0 HIT:          0 MISS:          0 MSHR_MERGE:          0
cpu0->cpu0_ITLB WRITE        ACCESS:          0 HIT:          0 MISS:          0 MSHR_MERGE:          0
cpu0->cpu0_ITLB TRANSLATION  ACCESS:          0 HIT:          0 MISS:          0 MSHR_MERGE:          0
cpu0->cpu0_ITLB PREFETCH REQUESTED:          0 ISSUED:          0 USEFUL:          0 USELESS:          0
cpu0->cpu0_ITLB AVERAGE MISS LATENCY: - cycles
cpu0->cpu0_DTLB TOTAL        ACCESS:   16847192 HIT:   15656802 MISS:    1190390 MSHR_MERGE:     184165
cpu0->cpu0_DTLB LOAD         ACCESS:   16847192 HIT:   15656802 MISS:    1190390 MSHR_MERGE:     184165
cpu0->cpu0_DTLB RFO          ACCESS:          0 HIT:          0 MISS:          0 MSHR_MERGE:          0
cpu0->cpu0_DTLB PREFETCH     ACCESS:          0 HIT:          0 MISS:          0 MSHR_MERGE:          0
cpu0->cpu0_DTLB WRITE        ACCESS:          0 HIT:          0 MISS:          0 MSHR_MERGE:          0
cpu0->cpu0_DTLB TRANSLATION  ACCESS:          0 HIT:          0 MISS:          0 MSHR_MERGE:          0
cpu0->cpu0_DTLB PREFETCH REQUESTED:          0 ISSUED:          0 USEFUL:          0 USELESS:          0
cpu0->cpu0_DTLB AVERAGE MISS LATENCY: 7.498 cycles
cpu0->LLC TOTAL        ACCESS:    2483467 HIT:    1543032 MISS:     940435 MSHR_MERGE:        944
cpu0->LLC LOAD         ACCESS:    1540386 HIT:    1191853 MISS:     348533 MSHR_MERGE:        122
cpu0->LLC RFO          ACCESS:     134162 HIT:     133263 MISS:        899 MSHR_MERGE:          0
cpu0->LLC PREFETCH     ACCESS:     599249 HIT:      15077 MISS:     584172 MSHR_MERGE:        822
cpu0->LLC WRITE        ACCESS:     202865 HIT:     202813 MISS:         52 MSHR_MERGE:          0
cpu0->LLC TRANSLATION  ACCESS:       6805 HIT:         26 MISS:       6779 MSHR_MERGE:          0
cpu0->LLC PREFETCH REQUESTED:          0 ISSUED:          0 USEFUL:          0 USELESS:          0
cpu0->LLC AVERAGE MISS LATENCY: 138.4 cycles

DRAM Statistics

Channel 0 RQ ROW_BUFFER_HIT:     276000
  ROW_BUFFER_MISS:     663434
  AVG DBUS CONGESTED CYCLE: 17.67
Channel 0 WQ ROW_BUFFER_HIT:        597
  ROW_BUFFER_MISS:       4376
  FULL:          0
Channel 0 REFRESHES ISSUED:      11337
