[VMEM] WARNING: physical memory size is smaller than virtual memory size.
WARNING: option --warmup_instructions is deprecated. Use --warmup-instructions instead.
WARNING: option --simulation_instructions is deprecated. Use --simulation-instructions instead.

*** ChampSim Multicore Out-of-Order Simulator ***
Warmup Instructions: 20000000
Simulation Instructions: 50000000
Number of CPUs: 1
Page size: 4096

Off-chip DRAM Size: 16 GiB Channels: 1 Width: 64-bit Data Rate: 3205 MT/s
Heartbeat CPU 0 instructions: 10000000 cycles: 4425918 heartbeat IPC: 2.259 cumulative IPC: 2.259 (Simulation time: 00 hr 00 min 49 sec)
Heartbeat CPU 0 instructions: 20000000 cycles: 8840448 heartbeat IPC: 2.265 cumulative IPC: 2.262 (Simulation time: 00 hr 01 min 41 sec)
Warmup finished CPU 0 instructions: 20000000 cycles: 8840448 cumulative IPC: 2.262 (Simulation time: 00 hr 01 min 41 sec)
Warmup complete CPU 0 instructions: 20000000 cycles: 8840448 cumulative IPC: 2.262 (Simulation time: 00 hr 01 min 41 sec)
Heartbeat CPU 0 instructions: 30000003 cycles: 21570084 heartbeat IPC: 0.7856 cumulative IPC: 0.7856 (Simulation time: 00 hr 03 min 20 sec)
Heartbeat CPU 0 instructions: 40000003 cycles: 34267085 heartbeat IPC: 0.7876 cumulative IPC: 0.7866 (Simulation time: 00 hr 05 min 00 sec)
Heartbeat CPU 0 instructions: 50000003 cycles: 46971396 heartbeat IPC: 0.7871 cumulative IPC: 0.7868 (Simulation time: 00 hr 06 min 39 sec)
Heartbeat CPU 0 instructions: 60000005 cycles: 59630929 heartbeat IPC: 0.7899 cumulative IPC: 0.7875 (Simulation time: 00 hr 08 min 20 sec)
Simulation finished CPU 0 instructions: 50000000 cycles: 63522953 cumulative IPC: 0.7871 (Simulation time: 00 hr 09 min 59 sec)
Simulation complete CPU 0 instructions: 50000000 cycles: 63522953 cumulative IPC: 0.7871 (Simulation time: 00 hr 09 min 59 sec)

ChampSim completed all CPUs

=== Simulation ===
CPU 0 runs traces/603.bwaves_s-1740B.champsimtrace.xz

Region of Interest Statistics

CPU 0 cumulative IPC: 0.7871 instructions: 50000000 cycles: 63522953
CPU 0 Branch Prediction Accuracy: 99.97% MPKI: 0.00734 Average ROB Occupancy at Mispredict: 189.7
Branch type MPKI
BRANCH_DIRECT_JUMP: 0
BRANCH_INDIRECT: 0
BRANCH_CONDITIONAL: 0.00734
BRANCH_DIRECT_CALL: 0
BRANCH_INDIRECT_CALL: 0
BRANCH_RETURN: 0

cpu0->cpu0_STLB TOTAL        ACCESS:      92659 HIT:      77817 MISS:      14842 MSHR_MERGE:          0
cpu0->cpu0_STLB LOAD         ACCESS:      92659 HIT:      77817 MISS:      14842 MSHR_MERGE:          0
cpu0->cpu0_STLB RFO          ACCESS:          0 HIT:          0 MISS:          0 MSHR_MERGE:          0
cpu0->cpu0_STLB PREFETCH     ACCESS:          0 HIT:          0 MISS:          0 MSHR_MERGE:          0
cpu0->cpu0_STLB WRITE        ACCESS:          0 HIT:          0 MISS:          0 MSHR_MERGE:          0
cpu0->cpu0_STLB TRANSLATION  ACCESS:          0 HIT:          0 MISS:          0 MSHR_MERGE:          0
cpu0->cpu0_STLB PREFETCH REQUESTED:          0 ISSUED:          0 USEFUL:          0 USELESS:          0
cpu0->cpu0_STLB AVERAGE MISS LATENCY: 626.1 cycles
cpu0->cpu0_L2C TOTAL        ACCESS:    1117887 HIT:     139771 MISS:     978116 MSHR_MERGE:          0
cpu0->cpu0_L2C LOAD         ACCESS:    1020102 HIT:      84252 MISS:     935850 MSHR_MERGE:          0
cpu0->cpu0_L2C RFO          ACCESS:      33780 HIT:       9418 MISS:      24362 MSHR_MERGE:          0
cpu0->cpu0_L2C PREFETCH     ACCESS:          0 HIT:          0 MISS:          0 MSHR_MERGE:          0
cpu0->cpu0_L2C WRITE        ACCESS:      37087 HIT:      36750 MISS:        337 MSHR_MERGE:          0
cpu0->cpu0_L2C TRANSLATION  ACCESS:      26918 HIT:       9351 MISS:      17567 MSHR_MERGE:          0
cpu0->cpu0_L2C PREFETCH REQUESTED:          0 ISSUED:          0 USEFUL:          0 USELESS:          0
cpu0->cpu0_L2C AVERAGE MISS LATENCY: 192.9 cycles
cpu0->cpu0_L1I TOTAL        ACCESS:   12257306 HIT:   12257306 MISS:          0 MSHR_MERGE:          0
cpu0->cpu0_L1I LOAD         ACCESS:   12257306 HIT:   12257306 MISS:          0 MSHR_MERGE:          0
cpu0->cpu0_L1I RFO          ACCESS:          0 HIT:          0 MISS:          0 MSHR_MERGE:          0
cpu0->cpu0_L1I PREFETCH     ACCESS:          0 HIT:          0 MISS:          0 MSHR_MERGE:          0
cpu0->cpu0_L1I WRITE        ACCESS:          0 HIT:          0 MISS:          0 MSHR_MERGE:          0
cpu0->cpu0_L1I TRANSLATION  ACCESS:          0 HIT:          0 MISS:          0 MSHR_MERGE:          0
cpu0->cpu0_L1I PREFETCH REQUESTED:          0 ISSUED:          0 USEFUL:          0 USELESS:          0
cpu0->cpu0_L1I AVERAGE MISS LATENCY: - cycles
cpu0->cpu0_L1D TOTAL        ACCESS:   17183307 HIT:   15814533 MISS:    1368774 MSHR_MERGE:     287919
cpu0->cpu0_L1D LOAD         ACCESS:   14336896 HIT:   13044535 MISS:    1292361 MSHR_MERGE:     272215
cpu0->cpu0_L1D RFO          ACCESS:          0 HIT:          0 MISS:          0 MSHR_MERGE:          0
cpu0->cpu0_L1D PREFETCH     ACCESS:          0 HIT:          0 MISS:          0 MSHR_MERGE:          0
cpu0->cpu0_L1D WRITE        ACCESS:    2816699 HIT:    2767204 MISS:      49495 MSHR_MERGE:      15704
cpu0->cpu0_L1D TRANSLATION  ACCESS:      29712 HIT:       2794 MISS:      26918 MSHR_MERGE:          0
cpu0->cpu0_L1D PREFETCH REQUESTED:          0 ISSUED:          0 USEFUL:          0 USELESS:          0
cpu0->cpu0_L1D AVERAGE MISS LATENCY: 183.5 cycles
cpu0->cpu0_ITLB TOTAL        ACCESS:   11138767 HIT:   11138767 MISS:          0 MSHR_MERGE:          0
cpu0->cpu0_ITLB LOAD         ACCESS:   11138767 HIT:   11138767 MISS:          0 MSHR_MERGE:          0
cpu0->cpu0_ITLB RFO          ACCESS:          0 HIT:          0 MISS:          0 MSHR_MERGE:          0
cpu0->cpu0_ITLB PREFETCH     ACCESS:          0 HIT:          0 MISS:          0 MSHR_MERGE:          0
cpu0->cpu0_ITLB WRITE        ACCESS:          0 HIT:          0 MISS:          0 MSHR_MERGE:          0
cpu0->cpu0_ITLB TRANSLATION  ACCESS:          0 HIT:          0 MISS:          0 MSHR_MERGE:          0
cpu0->cpu0_ITLB PREFETCH REQUESTED:          0 ISSUED:          0 USEFUL:          0 USELESS:          0
cpu0->cpu0_ITLB AVERAGE MISS LATENCY: - cycles
cpu0->cpu0_DTLB TOTAL        ACCESS:   16513754 HIT:   16406938 MISS:     106816 MSHR_MERGE:      14157
cpu0->cpu0_DTLB LOAD         ACCESS:   16513754 HIT:   16406938 MISS:     106816 MSHR_MERGE:      14157
cpu0->cpu0_DTLB RFO          ACCESS:          0 HIT:          0 MISS:          0 MSHR_MERGE:          0
cpu0->cpu0_DTLB PREFETCH     ACCESS:          0 HIT:          0 MISS:          0 MSHR_MERGE:          0
cpu0->cpu0_DTLB WRITE        ACCESS:          0 HIT:          0 MISS:          0 MSHR_MERGE:          0
cpu0->cpu0_DTLB TRANSLATION  ACCESS:          0 HIT:          0 MISS:          0 MSHR_MERGE:          0
cpu0->cpu0_DTLB PREFETCH REQUESTED:          0 ISSUED:          0 USEFUL:          0 USELESS:          0
cpu0->cpu0_DTLB AVERAGE MISS LATENCY: 104.4 cycles
cpu0->LLC TOTAL        ACCESS:    1002612 HIT:       4893 MISS:     997719 MSHR_MERGE:          0
cpu0->LLC LOAD         ACCESS:     935850 HIT:       1876 MISS:     933974 MSHR_MERGE:          0
cpu0->LLC RFO          ACCESS:      24362 HIT:          0 MISS:      24362 MSHR_MERGE:          0
cpu0->LLC PREFETCH     ACCESS:          0 HIT:          0 MISS:          0 MSHR_MERGE:          0
cpu0->LLC WRITE        ACCESS:      24833 HIT:       3002 MISS:      21831 MSHR_MERGE:          0
cpu0->LLC TRANSLATION  ACCESS:      17567 HIT:         15 MISS:      17552 MSHR_MERGE:          0
cpu0->LLC PREFETCH REQUESTED:          0 ISSUED:          0 USEFUL:          0 USELESS:          0
cpu0->LLC AVERAGE MISS LATENCY: 172.6 cycles

DRAM Statistics

Channel 0 RQ ROW_BUFFER_HIT:          1
  ROW_BUFFER_MISS:     975886
  AVG DBUS CONGESTED CYCLE: 5.822
Channel 0 WQ ROW_BUFFER_HIT:       4225
  ROW_BUFFER_MISS:      20307
  FULL:          0
Channel 0 REFRESHES ISSUED:       5294
