[VMEM] WARNING: physical memory size is smaller than virtual memory size.
WARNING: option --warmup_instructions is deprecated. Use --warmup-instructions instead.
WARNING: option --simulation_instructions is deprecated. Use --simulation-instructions instead.

*** ChampSim Multicore Out-of-Order Simulator ***
Warmup Instructions: 20000000
Simulation Instructions: 50000000
Number of CPUs: 1
Page size: 8192

Off-chip DRAM Size: 16 GiB Channels: 1 Width: 64-bit Data Rate: 3205 MT/s
Heartbeat CPU 0 instructions: 10000002 cycles: 3329860 heartbeat IPC: 3.003 cumulative IPC: 3.003 (Simulation time: 00 hr 00 min 38 sec)
Warmup finished CPU 0 instructions: 20000000 cycles: 6648386 cumulative IPC: 3.008 (Simulation time: 00 hr 01 min 17 sec)
Warmup complete CPU 0 instructions: 20000000 cycles: 6648386 cumulative IPC: 3.008 (Simulation time: 00 hr 01 min 17 sec)
Heartbeat CPU 0 instructions: 20000004 cycles: 6648387 heartbeat IPC: 3.013 cumulative IPC: 4 (Simulation time: 00 hr 01 min 17 sec)
Heartbeat CPU 0 instructions: 30000006 cycles: 19623079 heartbeat IPC: 0.7707 cumulative IPC: 0.7707 (Simulation time: 00 hr 03 min 28 sec)
Heartbeat CPU 0 instructions: 40000008 cycles: 32262605 heartbeat IPC: 0.7912 cumulative IPC: 0.7808 (Simulation time: 00 hr 05 min 32 sec)
Heartbeat CPU 0 instructions: 50000008 cycles: 44960919 heartbeat IPC: 0.7875 cumulative IPC: 0.783 (Simulation time: 00 hr 07 min 34 sec)
Heartbeat CPU 0 instructions: 60000008 cycles: 57591813 heartbeat IPC: 0.7917 cumulative IPC: 0.7852 (Simulation time: 00 hr 09 min 38 sec)
Simulation finished CPU 0 instructions: 50000002 cycles: 63605012 cumulative IPC: 0.7861 (Simulation time: 00 hr 11 min 44 sec)
Simulation complete CPU 0 instructions: 50000002 cycles: 63605012 cumulative IPC: 0.7861 (Simulation time: 00 hr 11 min 44 sec)

ChampSim completed all CPUs

=== Simulation ===
CPU 0 runs traces/470.lbm-1274B.champsimtrace.xz

Region of Interest Statistics

CPU 0 cumulative IPC: 0.7861 instructions: 50000002 cycles: 63605012
CPU 0 Branch Prediction Accuracy: 99.79% MPKI: 0.02864 Average ROB Occupancy at Mispredict: 190.1
Branch type MPKI
BRANCH_DIRECT_JUMP: 0
BRANCH_INDIRECT: 0
BRANCH_CONDITIONAL: 0.02864
BRANCH_DIRECT_CALL: 0
BRANCH_INDIRECT_CALL: 0
BRANCH_RETURN: 0

cpu0->cpu0_STLB TOTAL        ACCESS:      11115 HIT:       5557 MISS:       5558 MSHR_MERGE:          0
cpu0->cpu0_STLB LOAD         ACCESS:      11115 HIT:       5557 MISS:       5558 MSHR_MERGE:          0
cpu0->cpu0_STLB RFO          ACCESS:          0 HIT:          0 MISS:          0 MSHR_MERGE:          0
cpu0->cpu0_STLB PREFETCH     ACCESS:          0 HIT:          0 MISS:          0 MSHR_MERGE:          0
cpu0->cpu0_STLB WRITE        ACCESS:          0 HIT:          0 MISS:          0 MSHR_MERGE:          0
cpu0->cpu0_STLB TRANSLATION  ACCESS:          0 HIT:          0 MISS:          0 MSHR_MERGE:          0
cpu0->cpu0_STLB PREFETCH REQUESTED:          0 ISSUED:          0 USEFUL:          0 USELESS:          0
cpu0->cpu0_STLB AVERAGE MISS LATENCY: 1223 cycles
cpu0->cpu0_L2C TOTAL        ACCESS:    7521396 HIT:    3853950 MISS:    3667446 MSHR_MERGE:     192351
cpu0->cpu0_L2C LOAD         ACCESS:     711434 HIT:     424299 MISS:     287135 MSHR_MERGE:      17511
cpu0->cpu0_L2C RFO          ACCESS:    2301371 HIT:     669733 MISS:    1631638 MSHR_MERGE:          0
cpu0->cpu0_L2C PREFETCH     ACCESS:    2195851 HIT:     456224 MISS:    1739627 MSHR_MERGE:     174840
cpu0->cpu0_L2C WRITE        ACCESS:    2301612 HIT:    2301597 MISS:         15 MSHR_MERGE:          0
cpu0->cpu0_L2C TRANSLATION  ACCESS:      11128 HIT:       2097 MISS:       9031 MSHR_MERGE:          0
cpu0->cpu0_L2C PREFETCH REQUESTED:    4802931 ISSUED:    2195851 USEFUL:     441810 USELESS:         18
cpu0->cpu0_L2C AVERAGE MISS LATENCY: 397.1 cycles
cpu0->cpu0_L1I TOTAL        ACCESS:    9536517 HIT:    9536517 MISS:          0 MSHR_MERGE:          0
cpu0->cpu0_L1I LOAD         ACCESS:    9536517 HIT:    9536517 MISS:          0 MSHR_MERGE:          0
cpu0->cpu0_L1I RFO          ACCESS:          0 HIT:          0 MISS:          0 MSHR_MERGE:          0
cpu0->cpu0_L1I PREFETCH     ACCESS:          0 HIT:          0 MISS:          0 MSHR_MERGE:          0
cpu0->cpu0_L1I WRITE        ACCESS:          0 HIT:          0 MISS:          0 MSHR_MERGE:          0
cpu0->cpu0_L1I TRANSLATION  ACCESS:          0 HIT:          0 MISS:          0 MSHR_MERGE:          0
cpu0->cpu0_L1I PREFETCH REQUESTED:          0 ISSUED:          0 USEFUL:          0 USELESS:          0
cpu0->cpu0_L1I AVERAGE MISS LATENCY: - cycles
cpu0->cpu0_L1D TOTAL        ACCESS:    7690170 HIT:    4590993 MISS:    3099177 MSHR_MERGE:      74992
cpu0->cpu0_L1D LOAD         ACCESS:    2655523 HIT:    1942314 MISS:     713209 MSHR_MERGE:       1775
cpu0->cpu0_L1D RFO          ACCESS:          0 HIT:          0 MISS:          0 MSHR_MERGE:          0
cpu0->cpu0_L1D PREFETCH     ACCESS:          0 HIT:          0 MISS:          0 MSHR_MERGE:          0
cpu0->cpu0_L1D WRITE        ACCESS:    5023519 HIT:    2648679 MISS:    2374840 MSHR_MERGE:      73217
cpu0->cpu0_L1D TRANSLATION  ACCESS:      11128 HIT:          0 MISS:      11128 MSHR_MERGE:          0
cpu0->cpu0_L1D PREFETCH REQUESTED:          0 ISSUED:          0 USEFUL:          0 USELESS:          0
cpu0->cpu0_L1D AVERAGE MISS LATENCY: 284.6 cycles
cpu0->cpu0_ITLB TOTAL        ACCESS:    7446018 HIT:    7446018 MISS:          0 MSHR_MERGE:          0
cpu0->cpu0_ITLB LOAD         ACCESS:    7446018 HIT:    7446018 MISS:          0 MSHR_MERGE:          0
cpu0->cpu0_ITLB RFO          ACCESS:          0 HIT:          0 MISS:          0 MSHR_MERGE:          0
cpu0->cpu0_ITLB PREFETCH     ACCESS:          0 HIT:          0 MISS:          0 MSHR_MERGE:          0
cpu0->cpu0_ITLB WRITE        ACCESS:          0 HIT:          0 MISS:          0 MSHR_MERGE:          0
cpu0->cpu0_ITLB TRANSLATION  ACCESS:          0 HIT:          0 MISS:          0 MSHR_MERGE:          0
cpu0->cpu0_ITLB PREFETCH REQUESTED:          0 ISSUED:          0 USEFUL:          0 USELESS:          0
cpu0->cpu0_ITLB AVERAGE MISS LATENCY: - cycles
cpu0->cpu0_DTLB TOTAL        ACCESS:    7163419 HIT:    7137368 MISS:      26051 MSHR_MERGE:      14936
cpu0->cpu0_DTLB LOAD         ACCESS:    7163419 HIT:    7137368 MISS:      26051 MSHR_MERGE:      14936
cpu0->cpu0_DTLB RFO          ACCESS:          0 HIT:          0 MISS:          0 MSHR_MERGE:          0
cpu0->cpu0_DTLB PREFETCH     ACCESS:          0 HIT:          0 MISS:          0 MSHR_MERGE:          0
cpu0->cpu0_DTLB WRITE        ACCESS:          0 HIT:          0 MISS:          0 MSHR_MERGE:          0
cpu0->cpu0_DTLB TRANSLATION  ACCESS:          0 HIT:          0 MISS:          0 MSHR_MERGE:          0
cpu0->cpu0_DTLB PREFETCH REQUESTED:          0 ISSUED:          0 USEFUL:          0 USELESS:          0
cpu0->cpu0_DTLB AVERAGE MISS LATENCY: 616 cycles
cpu0->LLC TOTAL        ACCESS:    5106699 HIT:    1039488 MISS:    4067211 MSHR_MERGE:     295499
cpu0->LLC LOAD         ACCESS:     269624 HIT:     219272 MISS:      50352 MSHR_MERGE:      12065
cpu0->LLC RFO          ACCESS:    1631635 HIT:      82055 MISS:    1549580 MSHR_MERGE:          0
cpu0->LLC PREFETCH     ACCESS:    1564787 HIT:     607479 MISS:     957308 MSHR_MERGE:     283434
cpu0->LLC WRITE        ACCESS:    1631622 HIT:     130682 MISS:    1500940 MSHR_MERGE:          0
cpu0->LLC TRANSLATION  ACCESS:       9031 HIT:          0 MISS:       9031 MSHR_MERGE:          0
cpu0->LLC PREFETCH REQUESTED:          0 ISSUED:          0 USEFUL:          0 USELESS:          0
cpu0->LLC AVERAGE MISS LATENCY: 238.8 cycles

DRAM Statistics

Channel 0 RQ ROW_BUFFER_HIT:     106370
  ROW_BUFFER_MISS:    2163870
  AVG DBUS CONGESTED CYCLE: 16.19
Channel 0 WQ ROW_BUFFER_HIT:     213376
  ROW_BUFFER_MISS:    1360057
  FULL:      16593
Channel 0 REFRESHES ISSUED:       5300
