[VMEM] WARNING: physical memory size is smaller than virtual memory size.
WARNING: option --warmup_instructions is deprecated. Use --warmup-instructions instead.
WARNING: option --simulation_instructions is deprecated. Use --simulation-instructions instead.

*** ChampSim Multicore Out-of-Order Simulator ***
Warmup Instructions: 20000000
Simulation Instructions: 50000000
Number of CPUs: 1
Page size: 65536

Off-chip DRAM Size: 16 GiB Channels: 1 Width: 64-bit Data Rate: 3205 MT/s
Heartbeat CPU 0 instructions: 10000000 cycles: 4230794 heartbeat IPC: 2.364 cumulative IPC: 2.364 (Simulation time: 00 hr 00 min 50 sec)
Heartbeat CPU 0 instructions: 20000000 cycles: 8458458 heartbeat IPC: 2.365 cumulative IPC: 2.364 (Simulation time: 00 hr 01 min 43 sec)
Warmup finished CPU 0 instructions: 20000000 cycles: 8458458 cumulative IPC: 2.364 (Simulation time: 00 hr 01 min 43 sec)
Warmup complete CPU 0 instructions: 20000000 cycles: 8458458 cumulative IPC: 2.364 (Simulation time: 00 hr 01 min 43 sec)
Heartbeat CPU 0 instructions: 30000003 cycles: 16050675 heartbeat IPC: 1.317 cumulative IPC: 1.317 (Simulation time: 00 hr 02 min 56 sec)
Heartbeat CPU 0 instructions: 40000003 cycles: 23660741 heartbeat IPC: 1.314 cumulative IPC: 1.316 (Simulation time: 00 hr 04 min 07 sec)
Heartbeat CPU 0 instructions: 50000003 cycles: 31331673 heartbeat IPC: 1.304 cumulative IPC: 1.312 (Simulation time: 00 hr 05 min 19 sec)
Heartbeat CPU 0 instructions: 60000005 cycles: 38966939 heartbeat IPC: 1.31 cumulative IPC: 1.311 (Simulation time: 00 hr 06 min 30 sec)
Simulation finished CPU 0 instructions: 50000001 cycles: 38160714 cumulative IPC: 1.31 (Simulation time: 00 hr 07 min 41 sec)
Simulation complete CPU 0 instructions: 50000001 cycles: 38160714 cumulative IPC: 1.31 (Simulation time: 00 hr 07 min 41 sec)

ChampSim completed all CPUs

=== Simulation ===
CPU 0 runs traces/603.bwaves_s-1740B.champsimtrace.xz

Region of Interest Statistics

CPU 0 cumulative IPC: 1.31 instructions: 50000001 cycles: 38160714
CPU 0 Branch Prediction Accuracy: 99.97% MPKI: 0.00734 Average ROB Occupancy at Mispredict: 190
Branch type MPKI
BRANCH_DIRECT_JUMP: 0
BRANCH_INDIRECT: 0
BRANCH_CONDITIONAL: 0.00734
BRANCH_DIRECT_CALL: 0
BRANCH_INDIRECT_CALL: 0
BRANCH_RETURN: 0

cpu0->cpu0_STLB TOTAL        ACCESS:      12609 HIT:      11729 MISS:        880 MSHR_MERGE:          0
cpu0->cpu0_STLB LOAD         ACCESS:      12609 HIT:      11729 MISS:        880 MSHR_MERGE:          0
cpu0->cpu0_STLB RFO          ACCESS:          0 HIT:          0 MISS:          0 MSHR_MERGE:          0
cpu0->cpu0_STLB PREFETCH     ACCESS:          0 HIT:          0 MISS:          0 MSHR_MERGE:          0
cpu0->cpu0_STLB WRITE        ACCESS:          0 HIT:          0 MISS:          0 MSHR_MERGE:          0
cpu0->cpu0_STLB TRANSLATION  ACCESS:          0 HIT:          0 MISS:          0 MSHR_MERGE:          0
cpu0->cpu0_STLB PREFETCH REQUESTED:          0 ISSUED:          0 USEFUL:          0 USELESS:          0
cpu0->cpu0_STLB AVERAGE MISS LATENCY: 769.5 cycles
cpu0->cpu0_L2C TOTAL        ACCESS:    4042582 HIT:    2185184 MISS:    1857398 MSHR_MERGE:     637662
cpu0->cpu0_L2C LOAD         ACCESS:    1019630 HIT:     988198 MISS:      31432 MSHR_MERGE:      22904
cpu0->cpu0_L2C RFO          ACCESS:      32840 HIT:       8478 MISS:      24362 MSHR_MERGE:          0
cpu0->cpu0_L2C PREFETCH     ACCESS:    2951721 HIT:    1151851 MISS:    1799870 MSHR_MERGE:     614758
cpu0->cpu0_L2C WRITE        ACCESS:      36630 HIT:      36617 MISS:         13 MSHR_MERGE:          0
cpu0->cpu0_L2C TRANSLATION  ACCESS:       1761 HIT:         40 MISS:       1721 MSHR_MERGE:          0
cpu0->cpu0_L2C PREFETCH REQUESTED:    3097574 ISSUED:    2951713 USEFUL:     923825 USELESS:        326
cpu0->cpu0_L2C AVERAGE MISS LATENCY: 124.4 cycles
cpu0->cpu0_L1I TOTAL        ACCESS:   11947210 HIT:   11947210 MISS:          0 MSHR_MERGE:          0
cpu0->cpu0_L1I LOAD         ACCESS:   11947210 HIT:   11947210 MISS:          0 MSHR_MERGE:          0
cpu0->cpu0_L1I RFO          ACCESS:          0 HIT:          0 MISS:          0 MSHR_MERGE:          0
cpu0->cpu0_L1I PREFETCH     ACCESS:          0 HIT:          0 MISS:          0 MSHR_MERGE:          0
cpu0->cpu0_L1I WRITE        ACCESS:          0 HIT:          0 MISS:          0 MSHR_MERGE:          0
cpu0->cpu0_L1I TRANSLATION  ACCESS:          0 HIT:          0 MISS:          0 MSHR_MERGE:          0
cpu0->cpu0_L1I PREFETCH REQUESTED:          0 ISSUED:          0 USEFUL:          0 USELESS:          0
cpu0->cpu0_L1I AVERAGE MISS LATENCY: - cycles
cpu0->cpu0_L1D TOTAL        ACCESS:   16956880 HIT:   15870748 MISS:    1086132 MSHR_MERGE:      31753
cpu0->cpu0_L1D LOAD         ACCESS:   14138420 HIT:   13113245 MISS:    1025175 MSHR_MERGE:       5464
cpu0->cpu0_L1D RFO          ACCESS:          0 HIT:          0 MISS:          0 MSHR_MERGE:          0
cpu0->cpu0_L1D PREFETCH     ACCESS:          0 HIT:          0 MISS:          0 MSHR_MERGE:          0
cpu0->cpu0_L1D WRITE        ACCESS:    2816699 HIT:    2757503 MISS:      59196 MSHR_MERGE:      26289
cpu0->cpu0_L1D TRANSLATION  ACCESS:       1761 HIT:          0 MISS:       1761 MSHR_MERGE:          0
cpu0->cpu0_L1D PREFETCH REQUESTED:          0 ISSUED:          0 USEFUL:          0 USELESS:          0
cpu0->cpu0_L1D AVERAGE MISS LATENCY: 16.95 cycles
cpu0->cpu0_ITLB TOTAL        ACCESS:   10818823 HIT:   10818823 MISS:          0 MSHR_MERGE:          0
cpu0->cpu0_ITLB LOAD         ACCESS:   10818823 HIT:   10818823 MISS:          0 MSHR_MERGE:          0
cpu0->cpu0_ITLB RFO          ACCESS:          0 HIT:          0 MISS:          0 MSHR_MERGE:          0
cpu0->cpu0_ITLB PREFETCH     ACCESS:          0 HIT:          0 MISS:          0 MSHR_MERGE:          0
cpu0->cpu0_ITLB WRITE        ACCESS:          0 HIT:          0 MISS:          0 MSHR_MERGE:          0
cpu0->cpu0_ITLB TRANSLATION  ACCESS:          0 HIT:          0 MISS:          0 MSHR_MERGE:          0
cpu0->cpu0_ITLB PREFETCH REQUESTED:          0 ISSUED:          0 USEFUL:          0 USELESS:          0
cpu0->cpu0_ITLB AVERAGE MISS LATENCY: - cycles
cpu0->cpu0_DTLB TOTAL        ACCESS:   16290793 HIT:   16275997 MISS:      14796 MSHR_MERGE:       2187
cpu0->cpu0_DTLB LOAD         ACCESS:   16290793 HIT:   16275997 MISS:      14796 MSHR_MERGE:       2187
cpu0->cpu0_DTLB RFO          ACCESS:          0 HIT:          0 MISS:          0 MSHR_MERGE:          0
cpu0->cpu0_DTLB PREFETCH     ACCESS:          0 HIT:          0 MISS:          0 MSHR_MERGE:          0
cpu0->cpu0_DTLB WRITE        ACCESS:          0 HIT:          0 MISS:          0 MSHR_MERGE:          0
cpu0->cpu0_DTLB TRANSLATION  ACCESS:          0 HIT:          0 MISS:          0 MSHR_MERGE:          0
cpu0->cpu0_DTLB PREFETCH REQUESTED:          0 ISSUED:          0 USEFUL:          0 USELESS:          0
cpu0->cpu0_DTLB AVERAGE MISS LATENCY: 57.77 cycles
cpu0->LLC TOTAL        ACCESS:    1244260 HIT:     197701 MISS:    1046559 MSHR_MERGE:      30216
cpu0->LLC LOAD         ACCESS:       8528 HIT:       6442 MISS:       2086 MSHR_MERGE:         12
cpu0->LLC RFO          ACCESS:      24362 HIT:          0 MISS:      24362 MSHR_MERGE:          0
cpu0->LLC PREFETCH     ACCESS:    1185112 HIT:     188428 MISS:     996684 MSHR_MERGE:      30204
cpu0->LLC WRITE        ACCESS:      24537 HIT:       2818 MISS:      21719 MSHR_MERGE:          0
cpu0->LLC TRANSLATION  ACCESS:       1721 HIT:         13 MISS:       1708 MSHR_MERGE:          0
cpu0->LLC PREFETCH REQUESTED:          0 ISSUED:          0 USEFUL:          0 USELESS:          0
cpu0->LLC AVERAGE MISS LATENCY: 93.97 cycles

DRAM Statistics

Channel 0 RQ ROW_BUFFER_HIT:      27324
  ROW_BUFFER_MISS:     967300
  AVG DBUS CONGESTED CYCLE: 4.134
Channel 0 WQ ROW_BUFFER_HIT:       2031
  ROW_BUFFER_MISS:      23091
  FULL:          0
Channel 0 REFRESHES ISSUED:       3180
