[VMEM] WARNING: physical memory size is smaller than virtual memory size.
WARNING: option --warmup_instructions is deprecated. Use --warmup-instructions instead.
WARNING: option --simulation_instructions is deprecated. Use --simulation-instructions instead.

*** ChampSim Multicore Out-of-Order Simulator ***
Warmup Instructions: 20000000
Simulation Instructions: 50000000
Number of CPUs: 1
Page size: 65536

Off-chip DRAM Size: 16 GiB Channels: 1 Width: 64-bit Data Rate: 3205 MT/s
Heartbeat CPU 0 instructions: 10000000 cycles: 4424648 heartbeat IPC: 2.26 cumulative IPC: 2.26 (Simulation time: 00 hr 00 min 54 sec)
Heartbeat CPU 0 instructions: 20000001 cycles: 8227363 heartbeat IPC: 2.63 cumulative IPC: 2.431 (Simulation time: 00 hr 01 min 45 sec)
Warmup finished CPU 0 instructions: 20000001 cycles: 8227363 cumulative IPC: 2.431 (Simulation time: 00 hr 01 min 45 sec)
Warmup complete CPU 0 instructions: 20000001 cycles: 8227363 cumulative IPC: 2.431 (Simulation time: 00 hr 01 min 45 sec)
Heartbeat CPU 0 instructions: 30000003 cycles: 42705129 heartbeat IPC: 0.29 cumulative IPC: 0.29 (Simulation time: 00 hr 04 min 56 sec)
Heartbeat CPU 0 instructions: 40000005 cycles: 77664233 heartbeat IPC: 0.286 cumulative IPC: 0.288 (Simulation time: 00 hr 08 min 17 sec)
Heartbeat CPU 0 instructions: 50000006 cycles: 112579725 heartbeat IPC: 0.2864 cumulative IPC: 0.2875 (Simulation time: 00 hr 11 min 42 sec)
Heartbeat CPU 0 instructions: 60000007 cycles: 146872410 heartbeat IPC: 0.2916 cumulative IPC: 0.2885 (Simulation time: 00 hr 14 min 34 sec)
Simulation finished CPU 0 instructions: 50000002 cycles: 173655891 cumulative IPC: 0.2879 (Simulation time: 00 hr 17 min 33 sec)
Simulation complete CPU 0 instructions: 50000002 cycles: 173655891 cumulative IPC: 0.2879 (Simulation time: 00 hr 17 min 33 sec)

ChampSim completed all CPUs

=== Simulation ===
CPU 0 runs traces/473.astar-359B.champsimtrace.xz

Region of Interest Statistics

CPU 0 cumulative IPC: 0.2879 instructions: 50000002 cycles: 173655891
CPU 0 Branch Prediction Accuracy: 93.2% MPKI: 13.43 Average ROB Occupancy at Mispredict: 44.4
Branch type MPKI
BRANCH_DIRECT_JUMP: 0
BRANCH_INDIRECT: 0
BRANCH_CONDITIONAL: 13.42
BRANCH_DIRECT_CALL: 0
BRANCH_INDIRECT_CALL: 0.00054
BRANCH_RETURN: 0

cpu0->cpu0_STLB TOTAL        ACCESS:     764584 HIT:     764584 MISS:          0 MSHR_MERGE:          0
cpu0->cpu0_STLB LOAD         ACCESS:     764584 HIT:     764584 MISS:          0 MSHR_MERGE:          0
cpu0->cpu0_STLB RFO          ACCESS:          0 HIT:          0 MISS:          0 MSHR_MERGE:          0
cpu0->cpu0_STLB PREFETCH     ACCESS:          0 HIT:          0 MISS:          0 MSHR_MERGE:          0
cpu0->cpu0_STLB WRITE        ACCESS:          0 HIT:          0 MISS:          0 MSHR_MERGE:          0
cpu0->cpu0_STLB TRANSLATION  ACCESS:          0 HIT:          0 MISS:          0 MSHR_MERGE:          0
cpu0->cpu0_STLB PREFETCH REQUESTED:          0 ISSUED:          0 USEFUL:          0 USELESS:          0
cpu0->cpu0_STLB AVERAGE MISS LATENCY: - cycles
cpu0->cpu0_L2C TOTAL        ACCESS:    5671545 HIT:    2876243 MISS:    2795302 MSHR_MERGE:      73832
cpu0->cpu0_L2C LOAD         ACCESS:    1760602 HIT:     931152 MISS:     829450 MSHR_MERGE:      21148
cpu0->cpu0_L2C RFO          ACCESS:     766849 HIT:      44382 MISS:     722467 MSHR_MERGE:          0
cpu0->cpu0_L2C PREFETCH     ACCESS:    1975613 HIT:     732802 MISS:    1242811 MSHR_MERGE:      52684
cpu0->cpu0_L2C WRITE        ACCESS:    1168481 HIT:    1167907 MISS:        574 MSHR_MERGE:          0
cpu0->cpu0_L2C TRANSLATION  ACCESS:          0 HIT:          0 MISS:          0 MSHR_MERGE:          0
cpu0->cpu0_L2C PREFETCH REQUESTED:    1996080 ISSUED:    1975613 USEFUL:     288193 USELESS:     680400
cpu0->cpu0_L2C AVERAGE MISS LATENCY: 286.6 cycles
cpu0->cpu0_L1I TOTAL        ACCESS:     850327 HIT:     850320 MISS:          7 MSHR_MERGE:          0
cpu0->cpu0_L1I LOAD         ACCESS:     850327 HIT:     850320 MISS:          7 MSHR_MERGE:          0
cpu0->cpu0_L1I RFO          ACCESS:          0 HIT:          0 MISS:          0 MSHR_MERGE:          0
cpu0->cpu0_L1I PREFETCH     ACCESS:          0 HIT:          0 MISS:          0 MSHR_MERGE:          0
cpu0->cpu0_L1I WRITE        ACCESS:          0 HIT:          0 MISS:          0 MSHR_MERGE:          0
cpu0->cpu0_L1I TRANSLATION  ACCESS:          0 HIT:          0 MISS:          0 MSHR_MERGE:          0
cpu0->cpu0_L1I PREFETCH REQUESTED:          0 ISSUED:          0 USEFUL:          0 USELESS:          0
cpu0->cpu0_L1I AVERAGE MISS LATENCY: 151.7 cycles
cpu0->cpu0_L1D TOTAL        ACCESS:   19078136 HIT:   15979988 MISS:    3098148 MSHR_MERGE:     570700
cpu0->cpu0_L1D LOAD         ACCESS:   12763433 HIT:   10432238 MISS:    2331195 MSHR_MERGE:     570598
cpu0->cpu0_L1D RFO          ACCESS:          0 HIT:          0 MISS:          0 MSHR_MERGE:          0
cpu0->cpu0_L1D PREFETCH     ACCESS:          0 HIT:          0 MISS:          0 MSHR_MERGE:          0
cpu0->cpu0_L1D WRITE        ACCESS:    6314703 HIT:    5547750 MISS:     766953 MSHR_MERGE:        102
cpu0->cpu0_L1D TRANSLATION  ACCESS:          0 HIT:          0 MISS:          0 MSHR_MERGE:          0
cpu0->cpu0_L1D PREFETCH REQUESTED:          0 ISSUED:          0 USEFUL:          0 USELESS:          0
cpu0->cpu0_L1D AVERAGE MISS LATENCY: 185.6 cycles
cpu0->cpu0_ITLB TOTAL        ACCESS:     848103 HIT:     848103 MISS:          0 MSHR_MERGE:          0
cpu0->cpu0_ITLB LOAD         ACCESS:     848103 HIT:     848103 MISS:          0 MSHR_MERGE:          0
cpu0->cpu0_ITLB RFO          ACCESS:          0 HIT:          0 MISS:          0 MSHR_MERGE:          0
cpu0->cpu0_ITLB PREFETCH     ACCESS:          0 HIT:          0 MISS:          0 MSHR_MERGE:          0
cpu0->cpu0_ITLB WRITE        ACCESS:          0 HIT:          0 MISS:          0 MSHR_MERGE:          0
cpu0->cpu0_ITLB TRANSLATION  ACCESS:          0 HIT:          0 MISS:          0 MSHR_MERGE:          0
cpu0->cpu0_ITLB PREFETCH REQUESTED:          0 ISSUED:          0 USEFUL:          0 USELESS:          0
cpu0->cpu0_ITLB AVERAGE MISS LATENCY: - cycles
cpu0->cpu0_DTLB TOTAL        ACCESS:   18167588 HIT:   17136189 MISS:    1031399 MSHR_MERGE:     266815
cpu0->cpu0_DTLB LOAD         ACCESS:   18167588 HIT:   17136189 MISS:    1031399 MSHR_MERGE:     266815
cpu0->cpu0_DTLB RFO          ACCESS:          0 HIT:          0 MISS:          0 MSHR_MERGE:          0
cpu0->cpu0_DTLB PREFETCH     ACCESS:          0 HIT:          0 MISS:          0 MSHR_MERGE:          0
cpu0->cpu0_DTLB WRITE        ACCESS:          0 HIT:          0 MISS:          0 MSHR_MERGE:          0
cpu0->cpu0_DTLB TRANSLATION  ACCESS:          0 HIT:          0 MISS:          0 MSHR_MERGE:          0
cpu0->cpu0_DTLB PREFETCH REQUESTED:          0 ISSUED:          0 USEFUL:          0 USELESS:          0
cpu0->cpu0_DTLB AVERAGE MISS LATENCY: 4 cycles
cpu0->LLC TOTAL        ACCESS:    3843710 HIT:    1059512 MISS:    2784198 MSHR_MERGE:      43811
cpu0->LLC LOAD         ACCESS:     808302 HIT:     259038 MISS:     549264 MSHR_MERGE:       6387
cpu0->LLC RFO          ACCESS:     722466 HIT:     187899 MISS:     534567 MSHR_MERGE:          0
cpu0->LLC PREFETCH     ACCESS:    1190127 HIT:     256637 MISS:     933490 MSHR_MERGE:      37424
cpu0->LLC WRITE        ACCESS:    1122815 HIT:     355938 MISS:     766877 MSHR_MERGE:          0
cpu0->LLC TRANSLATION  ACCESS:          0 HIT:          0 MISS:          0 MSHR_MERGE:          0
cpu0->LLC PREFETCH REQUESTED:          0 ISSUED:          0 USEFUL:          0 USELESS:          0
cpu0->LLC AVERAGE MISS LATENCY: 228.6 cycles

DRAM Statistics

Channel 0 RQ ROW_BUFFER_HIT:      57972
  ROW_BUFFER_MISS:    1914142
  AVG DBUS CONGESTED CYCLE: 19.43
Channel 0 WQ ROW_BUFFER_HIT:     138545
  ROW_BUFFER_MISS:     674805
  FULL:      13408
Channel 0 REFRESHES ISSUED:      14471
