[VMEM] WARNING: physical memory size is smaller than virtual memory size.
WARNING: option --warmup_instructions is deprecated. Use --warmup-instructions instead.
WARNING: option --simulation_instructions is deprecated. Use --simulation-instructions instead.

*** ChampSim Multicore Out-of-Order Simulator ***
Warmup Instructions: 20000000
Simulation Instructions: 50000000
Number of CPUs: 1
Page size: 8192

Off-chip DRAM Size: 16 GiB Channels: 1 Width: 64-bit Data Rate: 3205 MT/s
Heartbeat CPU 0 instructions: 10000000 cycles: 6989664 heartbeat IPC: 1.431 cumulative IPC: 1.431 (Simulation time: 00 hr 01 min 06 sec)
Heartbeat CPU 0 instructions: 20000001 cycles: 11074773 heartbeat IPC: 2.448 cumulative IPC: 1.806 (Simulation time: 00 hr 01 min 55 sec)
Warmup finished CPU 0 instructions: 20000001 cycles: 11074773 cumulative IPC: 1.806 (Simulation time: 00 hr 01 min 55 sec)
Warmup complete CPU 0 instructions: 20000001 cycles: 11074773 cumulative IPC: 1.806 (Simulation time: 00 hr 01 min 55 sec)
Heartbeat CPU 0 instructions: 30000003 cycles: 66138192 heartbeat IPC: 0.1816 cumulative IPC: 0.1816 (Simulation time: 00 hr 06 min 25 sec)
Heartbeat CPU 0 instructions: 40000005 cycles: 121519418 heartbeat IPC: 0.1806 cumulative IPC: 0.1811 (Simulation time: 00 hr 11 min 02 sec)
Heartbeat CPU 0 instructions: 50000006 cycles: 177717130 heartbeat IPC: 0.1779 cumulative IPC: 0.18 (Simulation time: 00 hr 15 min 52 sec)
Heartbeat CPU 0 instructions: 60000007 cycles: 232256596 heartbeat IPC: 0.1834 cumulative IPC: 0.1808 (Simulation time: 00 hr 20 min 22 sec)
Simulation finished CPU 0 instructions: 50000002 cycles: 275860669 cumulative IPC: 0.1813 (Simulation time: 00 hr 25 min 03 sec)
Simulation complete CPU 0 instructions: 50000002 cycles: 275860669 cumulative IPC: 0.1813 (Simulation time: 00 hr 25 min 03 sec)

ChampSim completed all CPUs

=== Simulation ===
CPU 0 runs traces/473.astar-359B.champsimtrace.xz

Region of Interest Statistics

CPU 0 cumulative IPC: 0.1813 instructions: 50000002 cycles: 275860669
CPU 0 Branch Prediction Accuracy: 93.2% MPKI: 13.43 Average ROB Occupancy at Mispredict: 44.43
Branch type MPKI
BRANCH_DIRECT_JUMP: 0
BRANCH_INDIRECT: 0
BRANCH_CONDITIONAL: 13.42
BRANCH_DIRECT_CALL: 0
BRANCH_INDIRECT_CALL: 0.00054
BRANCH_RETURN: 0

cpu0->cpu0_STLB TOTAL        ACCESS:    1275711 HIT:     889446 MISS:     386265 MSHR_MERGE:          0
cpu0->cpu0_STLB LOAD         ACCESS:    1275711 HIT:     889446 MISS:     386265 MSHR_MERGE:          0
cpu0->cpu0_STLB RFO          ACCESS:          0 HIT:          0 MISS:          0 MSHR_MERGE:          0
cpu0->cpu0_STLB PREFETCH     ACCESS:          0 HIT:          0 MISS:          0 MSHR_MERGE:          0
cpu0->cpu0_STLB WRITE        ACCESS:          0 HIT:          0 MISS:          0 MSHR_MERGE:          0
cpu0->cpu0_STLB TRANSLATION  ACCESS:          0 HIT:          0 MISS:          0 MSHR_MERGE:          0
cpu0->cpu0_STLB PREFETCH REQUESTED:          0 ISSUED:          0 USEFUL:          0 USELESS:          0
cpu0->cpu0_STLB AVERAGE MISS LATENCY: 579.3 cycles
cpu0->cpu0_L2C TOTAL        ACCESS:    4360944 HIT:    1956733 MISS:    2404211 MSHR_MERGE:          0
cpu0->cpu0_L2C LOAD         ACCESS:    1775426 HIT:     732297 MISS:    1043129 MSHR_MERGE:          0
cpu0->cpu0_L2C RFO          ACCESS:     767631 HIT:      47647 MISS:     719984 MSHR_MERGE:          0
cpu0->cpu0_L2C PREFETCH     ACCESS:          0 HIT:          0 MISS:          0 MSHR_MERGE:          0
cpu0->cpu0_L2C WRITE        ACCESS:    1168858 HIT:    1168819 MISS:         39 MSHR_MERGE:          0
cpu0->cpu0_L2C TRANSLATION  ACCESS:     649029 HIT:       7970 MISS:     641059 MSHR_MERGE:          0
cpu0->cpu0_L2C PREFETCH REQUESTED:          0 ISSUED:          0 USEFUL:          0 USELESS:          0
cpu0->cpu0_L2C AVERAGE MISS LATENCY: 278.1 cycles
cpu0->cpu0_L1I TOTAL        ACCESS:     833990 HIT:     833983 MISS:          7 MSHR_MERGE:          0
cpu0->cpu0_L1I LOAD         ACCESS:     833990 HIT:     833983 MISS:          7 MSHR_MERGE:          0
cpu0->cpu0_L1I RFO          ACCESS:          0 HIT:          0 MISS:          0 MSHR_MERGE:          0
cpu0->cpu0_L1I PREFETCH     ACCESS:          0 HIT:          0 MISS:          0 MSHR_MERGE:          0
cpu0->cpu0_L1I WRITE        ACCESS:          0 HIT:          0 MISS:          0 MSHR_MERGE:          0
cpu0->cpu0_L1I TRANSLATION  ACCESS:          0 HIT:          0 MISS:          0 MSHR_MERGE:          0
cpu0->cpu0_L1I PREFETCH REQUESTED:          0 ISSUED:          0 USEFUL:          0 USELESS:          0
cpu0->cpu0_L1I AVERAGE MISS LATENCY: 178 cycles
cpu0->cpu0_L1D TOTAL        ACCESS:   19885784 HIT:   15910959 MISS:    3974825 MSHR_MERGE:     782743
cpu0->cpu0_L1D LOAD         ACCESS:   12795650 HIT:   10327255 MISS:    2468395 MSHR_MERGE:     692974
cpu0->cpu0_L1D RFO          ACCESS:          0 HIT:          0 MISS:          0 MSHR_MERGE:          0
cpu0->cpu0_L1D PREFETCH     ACCESS:          0 HIT:          0 MISS:          0 MSHR_MERGE:          0
cpu0->cpu0_L1D WRITE        ACCESS:    6314585 HIT:    5546887 MISS:     767698 MSHR_MERGE:         66
cpu0->cpu0_L1D TRANSLATION  ACCESS:     775549 HIT:      36817 MISS:     738732 MSHR_MERGE:      89703
cpu0->cpu0_L1D PREFETCH REQUESTED:          0 ISSUED:          0 USEFUL:          0 USELESS:          0
cpu0->cpu0_L1D AVERAGE MISS LATENCY: 218.3 cycles
cpu0->cpu0_ITLB TOTAL        ACCESS:     831414 HIT:     831414 MISS:          0 MSHR_MERGE:          0
cpu0->cpu0_ITLB LOAD         ACCESS:     831414 HIT:     831414 MISS:          0 MSHR_MERGE:          0
cpu0->cpu0_ITLB RFO          ACCESS:          0 HIT:          0 MISS:          0 MSHR_MERGE:          0
cpu0->cpu0_ITLB PREFETCH     ACCESS:          0 HIT:          0 MISS:          0 MSHR_MERGE:          0
cpu0->cpu0_ITLB WRITE        ACCESS:          0 HIT:          0 MISS:          0 MSHR_MERGE:          0
cpu0->cpu0_ITLB TRANSLATION  ACCESS:          0 HIT:          0 MISS:          0 MSHR_MERGE:          0
cpu0->cpu0_ITLB PREFETCH REQUESTED:          0 ISSUED:          0 USEFUL:          0 USELESS:          0
cpu0->cpu0_ITLB AVERAGE MISS LATENCY: - cycles
cpu0->cpu0_DTLB TOTAL        ACCESS:   18171200 HIT:   16304588 MISS:    1866612 MSHR_MERGE:     590901
cpu0->cpu0_DTLB LOAD         ACCESS:   18171200 HIT:   16304588 MISS:    1866612 MSHR_MERGE:     590901
cpu0->cpu0_DTLB RFO          ACCESS:          0 HIT:          0 MISS:          0 MSHR_MERGE:          0
cpu0->cpu0_DTLB PREFETCH     ACCESS:          0 HIT:          0 MISS:          0 MSHR_MERGE:          0
cpu0->cpu0_DTLB WRITE        ACCESS:          0 HIT:          0 MISS:          0 MSHR_MERGE:          0
cpu0->cpu0_DTLB TRANSLATION  ACCESS:          0 HIT:          0 MISS:          0 MSHR_MERGE:          0
cpu0->cpu0_DTLB PREFETCH REQUESTED:          0 ISSUED:          0 USEFUL:          0 USELESS:          0
cpu0->cpu0_DTLB AVERAGE MISS LATENCY: 179.7 cycles
cpu0->LLC TOTAL        ACCESS:    3523612 HIT:     385131 MISS:    3138481 MSHR_MERGE:          0
cpu0->LLC LOAD         ACCESS:    1043129 HIT:     103877 MISS:     939252 MSHR_MERGE:          0
cpu0->LLC RFO          ACCESS:     719983 HIT:      79928 MISS:     640055 MSHR_MERGE:          0
cpu0->LLC PREFETCH     ACCESS:          0 HIT:          0 MISS:          0 MSHR_MERGE:          0
cpu0->LLC WRITE        ACCESS:    1119441 HIT:     132804 MISS:     986637 MSHR_MERGE:          0
cpu0->LLC TRANSLATION  ACCESS:     641059 HIT:      68522 MISS:     572537 MSHR_MERGE:          0
cpu0->LLC PREFETCH REQUESTED:          0 ISSUED:          0 USEFUL:          0 USELESS:          0
cpu0->LLC AVERAGE MISS LATENCY: 202.9 cycles

DRAM Statistics

Channel 0 RQ ROW_BUFFER_HIT:      69777
  ROW_BUFFER_MISS:    2081895
  AVG DBUS CONGESTED CYCLE: 20.55
Channel 0 WQ ROW_BUFFER_HIT:     156010
  ROW_BUFFER_MISS:     828940
  FULL:        225
Channel 0 REFRESHES ISSUED:      22989
