[VMEM] WARNING: physical memory size is smaller than virtual memory size.
WARNING: option --warmup_instructions is deprecated. Use --warmup-instructions instead.
WARNING: option --simulation_instructions is deprecated. Use --simulation-instructions instead.

*** ChampSim Multicore Out-of-Order Simulator ***
Warmup Instructions: 20000000
Simulation Instructions: 50000000
Number of CPUs: 1
Page size: 4096

Off-chip DRAM Size: 16 GiB Channels: 1 Width: 64-bit Data Rate: 3205 MT/s
Heartbeat CPU 0 instructions: 10000000 cycles: 9304250 heartbeat IPC: 1.075 cumulative IPC: 1.075 (Simulation time: 00 hr 01 min 29 sec)
Heartbeat CPU 0 instructions: 20000000 cycles: 17394399 heartbeat IPC: 1.236 cumulative IPC: 1.15 (Simulation time: 00 hr 02 min 50 sec)
Warmup finished CPU 0 instructions: 20000000 cycles: 17394399 cumulative IPC: 1.15 (Simulation time: 00 hr 02 min 50 sec)
Warmup complete CPU 0 instructions: 20000000 cycles: 17394399 cumulative IPC: 1.15 (Simulation time: 00 hr 02 min 50 sec)
Heartbeat CPU 0 instructions: 30000002 cycles: 48438829 heartbeat IPC: 0.3221 cumulative IPC: 0.3221 (Simulation time: 00 hr 05 min 58 sec)
Heartbeat CPU 0 instructions: 40000004 cycles: 79776864 heartbeat IPC: 0.3191 cumulative IPC: 0.3206 (Simulation time: 00 hr 09 min 07 sec)
Heartbeat CPU 0 instructions: 50000004 cycles: 110590866 heartbeat IPC: 0.3245 cumulative IPC: 0.3219 (Simulation time: 00 hr 12 min 14 sec)
Heartbeat CPU 0 instructions: 60000007 cycles: 139172060 heartbeat IPC: 0.3499 cumulative IPC: 0.3285 (Simulation time: 00 hr 15 min 13 sec)
Simulation finished CPU 0 instructions: 50000001 cycles: 149359194 cumulative IPC: 0.3348 (Simulation time: 00 hr 18 min 06 sec)
Simulation complete CPU 0 instructions: 50000001 cycles: 149359194 cumulative IPC: 0.3348 (Simulation time: 00 hr 18 min 06 sec)

ChampSim completed all CPUs

=== Simulation ===
CPU 0 runs traces/620.omnetpp_s-874B.champsimtrace.xz

Region of Interest Statistics

CPU 0 cumulative IPC: 0.3348 instructions: 50000001 cycles: 149359194
CPU 0 Branch Prediction Accuracy: 96.16% MPKI: 7.99 Average ROB Occupancy at Mispredict: 58.83
Branch type MPKI
BRANCH_DIRECT_JUMP: 0.9384
BRANCH_INDIRECT: 0.1208
BRANCH_CONDITIONAL: 5.805
BRANCH_DIRECT_CALL: 0.00236
BRANCH_INDIRECT_CALL: 0.7298
BRANCH_RETURN: 0.3936

cpu0->cpu0_STLB TOTAL        ACCESS:    1037306 HIT:     868658 MISS:     168648 MSHR_MERGE:          0
cpu0->cpu0_STLB LOAD         ACCESS:    1037306 HIT:     868658 MISS:     168648 MSHR_MERGE:          0
cpu0->cpu0_STLB RFO          ACCESS:          0 HIT:          0 MISS:          0 MSHR_MERGE:          0
cpu0->cpu0_STLB PREFETCH     ACCESS:          0 HIT:          0 MISS:          0 MSHR_MERGE:          0
cpu0->cpu0_STLB WRITE        ACCESS:          0 HIT:          0 MISS:          0 MSHR_MERGE:          0
cpu0->cpu0_STLB TRANSLATION  ACCESS:          0 HIT:          0 MISS:          0 MSHR_MERGE:          0
cpu0->cpu0_STLB PREFETCH REQUESTED:          0 ISSUED:          0 USEFUL:          0 USELESS:          0
cpu0->cpu0_STLB AVERAGE MISS LATENCY: 318.8 cycles
cpu0->cpu0_L2C TOTAL        ACCESS:    2054857 HIT:     920864 MISS:    1133993 MSHR_MERGE:       1918
cpu0->cpu0_L2C LOAD         ACCESS:     944870 HIT:     292226 MISS:     652644 MSHR_MERGE:         31
cpu0->cpu0_L2C RFO          ACCESS:     139587 HIT:      32046 MISS:     107541 MSHR_MERGE:          0
cpu0->cpu0_L2C PREFETCH     ACCESS:      82279 HIT:      26550 MISS:      55729 MSHR_MERGE:       1887
cpu0->cpu0_L2C WRITE        ACCESS:     509709 HIT:     507513 MISS:       2196 MSHR_MERGE:          0
cpu0->cpu0_L2C TRANSLATION  ACCESS:     378412 HIT:      62529 MISS:     315883 MSHR_MERGE:          0
cpu0->cpu0_L2C PREFETCH REQUESTED:      82279 ISSUED:      82279 USEFUL:      12620 USELESS:      41162
cpu0->cpu0_L2C AVERAGE MISS LATENCY: 134.6 cycles
cpu0->cpu0_L1I TOTAL        ACCESS:    7842926 HIT:    7817963 MISS:      24963 MSHR_MERGE:       6491
cpu0->cpu0_L1I LOAD         ACCESS:    7842926 HIT:    7817963 MISS:      24963 MSHR_MERGE:       6491
cpu0->cpu0_L1I RFO          ACCESS:          0 HIT:          0 MISS:          0 MSHR_MERGE:          0
cpu0->cpu0_L1I PREFETCH     ACCESS:          0 HIT:          0 MISS:          0 MSHR_MERGE:          0
cpu0->cpu0_L1I WRITE        ACCESS:          0 HIT:          0 MISS:          0 MSHR_MERGE:          0
cpu0->cpu0_L1I TRANSLATION  ACCESS:          0 HIT:          0 MISS:          0 MSHR_MERGE:          0
cpu0->cpu0_L1I PREFETCH REQUESTED:          0 ISSUED:          0 USEFUL:          0 USELESS:          0
cpu0->cpu0_L1I AVERAGE MISS LATENCY: 27.13 cycles
cpu0->cpu0_L1D TOTAL        ACCESS:   18857768 HIT:   16952559 MISS:    1905209 MSHR_MERGE:     460807
cpu0->cpu0_L1D LOAD         ACCESS:    9424940 HIT:    8286655 MISS:    1138285 MSHR_MERGE:     211883
cpu0->cpu0_L1D RFO          ACCESS:          0 HIT:          0 MISS:          0 MSHR_MERGE:          0
cpu0->cpu0_L1D PREFETCH     ACCESS:          0 HIT:          0 MISS:          0 MSHR_MERGE:          0
cpu0->cpu0_L1D WRITE        ACCESS:    9026965 HIT:    8639229 MISS:     387736 MSHR_MERGE:     248148
cpu0->cpu0_L1D TRANSLATION  ACCESS:     405863 HIT:      26675 MISS:     379188 MSHR_MERGE:        776
cpu0->cpu0_L1D PREFETCH REQUESTED:          0 ISSUED:          0 USEFUL:          0 USELESS:          0
cpu0->cpu0_L1D AVERAGE MISS LATENCY: 109 cycles
cpu0->cpu0_ITLB TOTAL        ACCESS:    7257907 HIT:    7127486 MISS:     130421 MSHR_MERGE:      50496
cpu0->cpu0_ITLB LOAD         ACCESS:    7257907 HIT:    7127486 MISS:     130421 MSHR_MERGE:      50496
cpu0->cpu0_ITLB RFO          ACCESS:          0 HIT:          0 MISS:          0 MSHR_MERGE:          0
cpu0->cpu0_ITLB PREFETCH     ACCESS:          0 HIT:          0 MISS:          0 MSHR_MERGE:          0
cpu0->cpu0_ITLB WRITE        ACCESS:          0 HIT:          0 MISS:          0 MSHR_MERGE:          0
cpu0->cpu0_ITLB TRANSLATION  ACCESS:          0 HIT:          0 MISS:          0 MSHR_MERGE:          0
cpu0->cpu0_ITLB PREFETCH REQUESTED:          0 ISSUED:          0 USEFUL:          0 USELESS:          0
cpu0->cpu0_ITLB AVERAGE MISS LATENCY: 5.401 cycles
cpu0->cpu0_DTLB TOTAL        ACCESS:   17191785 HIT:   16092179 MISS:    1099606 MSHR_MERGE:     142225
cpu0->cpu0_DTLB LOAD         ACCESS:   17191785 HIT:   16092179 MISS:    1099606 MSHR_MERGE:     142225
cpu0->cpu0_DTLB RFO          ACCESS:          0 HIT:          0 MISS:          0 MSHR_MERGE:          0
cpu0->cpu0_DTLB PREFETCH     ACCESS:          0 HIT:          0 MISS:          0 MSHR_MERGE:          0
cpu0->cpu0_DTLB WRITE        ACCESS:          0 HIT:          0 MISS:          0 MSHR_MERGE:          0
cpu0->cpu0_DTLB TRANSLATION  ACCESS:          0 HIT:          0 MISS:          0 MSHR_MERGE:          0
cpu0->cpu0_DTLB PREFETCH REQUESTED:          0 ISSUED:          0 USEFUL:          0 USELESS:          0
cpu0->cpu0_DTLB AVERAGE MISS LATENCY: 60.22 cycles
cpu0->LLC TOTAL        ACCESS:    1515256 HIT:     371406 MISS:    1143850 MSHR_MERGE:          0
cpu0->LLC LOAD         ACCESS:     652613 HIT:     133911 MISS:     518702 MSHR_MERGE:          0
cpu0->LLC RFO          ACCESS:     107541 HIT:      23425 MISS:      84116 MSHR_MERGE:          0
cpu0->LLC PREFETCH     ACCESS:      53842 HIT:       1634 MISS:      52208 MSHR_MERGE:          0
cpu0->LLC WRITE        ACCESS:     385377 HIT:     131296 MISS:     254081 MSHR_MERGE:          0
cpu0->LLC TRANSLATION  ACCESS:     315883 HIT:      81140 MISS:     234743 MSHR_MERGE:          0
cpu0->LLC PREFETCH REQUESTED:          0 ISSUED:          0 USEFUL:          0 USELESS:          0
cpu0->LLC AVERAGE MISS LATENCY: 118.5 cycles

DRAM Statistics

Channel 0 RQ ROW_BUFFER_HIT:       8080
  ROW_BUFFER_MISS:     881651
  AVG DBUS CONGESTED CYCLE: 23.31
Channel 0 WQ ROW_BUFFER_HIT:      72193
  ROW_BUFFER_MISS:     209912
  FULL:          0
Channel 0 REFRESHES ISSUED:      12447
