[VMEM] WARNING: physical memory size is smaller than virtual memory size.
WARNING: option --warmup_instructions is deprecated. Use --warmup-instructions instead.
WARNING: option --simulation_instructions is deprecated. Use --simulation-instructions instead.

*** ChampSim Multicore Out-of-Order Simulator ***
Warmup Instructions: 20000000
Simulation Instructions: 50000000
Number of CPUs: 1
Page size: 4096

Off-chip DRAM Size: 16 GiB Channels: 1 Width: 64-bit Data Rate: 3205 MT/s
Heartbeat CPU 0 instructions: 10000001 cycles: 5055506 heartbeat IPC: 1.978 cumulative IPC: 1.978 (Simulation time: 00 hr 00 min 57 sec)
Heartbeat CPU 0 instructions: 20000002 cycles: 10041536 heartbeat IPC: 2.006 cumulative IPC: 1.992 (Simulation time: 00 hr 01 min 55 sec)
Warmup finished CPU 0 instructions: 20000002 cycles: 10041536 cumulative IPC: 1.992 (Simulation time: 00 hr 01 min 55 sec)
Warmup complete CPU 0 instructions: 20000002 cycles: 10041536 cumulative IPC: 1.992 (Simulation time: 00 hr 01 min 55 sec)
Heartbeat CPU 0 instructions: 30000005 cycles: 40862296 heartbeat IPC: 0.3245 cumulative IPC: 0.3245 (Simulation time: 00 hr 04 min 39 sec)
Heartbeat CPU 0 instructions: 40000005 cycles: 71501574 heartbeat IPC: 0.3264 cumulative IPC: 0.3254 (Simulation time: 00 hr 07 min 25 sec)
Heartbeat CPU 0 instructions: 50000007 cycles: 102319878 heartbeat IPC: 0.3245 cumulative IPC: 0.3251 (Simulation time: 00 hr 10 min 09 sec)
Heartbeat CPU 0 instructions: 60000007 cycles: 132814720 heartbeat IPC: 0.3279 cumulative IPC: 0.3258 (Simulation time: 00 hr 12 min 52 sec)
Simulation finished CPU 0 instructions: 50000002 cycles: 153548720 cumulative IPC: 0.3256 (Simulation time: 00 hr 15 min 36 sec)
Simulation complete CPU 0 instructions: 50000002 cycles: 153548720 cumulative IPC: 0.3256 (Simulation time: 00 hr 15 min 36 sec)

ChampSim completed all CPUs

=== Simulation ===
CPU 0 runs traces/605.mcf_s-1152B.champsimtrace.xz

Region of Interest Statistics

CPU 0 cumulative IPC: 0.3256 instructions: 50000002 cycles: 153548720
CPU 0 Branch Prediction Accuracy: 90.19% MPKI: 24.48 Average ROB Occupancy at Mispredict: 21.47
Branch type MPKI
BRANCH_DIRECT_JUMP: 0.2057
BRANCH_INDIRECT: 0
BRANCH_CONDITIONAL: 24.27
BRANCH_DIRECT_CALL: 0
BRANCH_INDIRECT_CALL: 0.0036
BRANCH_RETURN: 2e-05

cpu0->cpu0_STLB TOTAL        ACCESS:    1300757 HIT:    1289218 MISS:      11539 MSHR_MERGE:          0
cpu0->cpu0_STLB LOAD         ACCESS:    1300757 HIT:    1289218 MISS:      11539 MSHR_MERGE:          0
cpu0->cpu0_STLB RFO          ACCESS:          0 HIT:          0 MISS:          0 MSHR_MERGE:          0
cpu0->cpu0_STLB PREFETCH     ACCESS:          0 HIT:          0 MISS:          0 MSHR_MERGE:          0
cpu0->cpu0_STLB WRITE        ACCESS:          0 HIT:          0 MISS:          0 MSHR_MERGE:          0
cpu0->cpu0_STLB TRANSLATION  ACCESS:          0 HIT:          0 MISS:          0 MSHR_MERGE:          0
cpu0->cpu0_STLB PREFETCH REQUESTED:          0 ISSUED:          0 USEFUL:          0 USELESS:          0
cpu0->cpu0_STLB AVERAGE MISS LATENCY: 604.8 cycles
cpu0->cpu0_L2C TOTAL        ACCESS:    5695035 HIT:    2910479 MISS:    2784556 MSHR_MERGE:     441041
cpu0->cpu0_L2C LOAD         ACCESS:    2552761 HIT:    1012115 MISS:    1540646 MSHR_MERGE:      27814
cpu0->cpu0_L2C RFO          ACCESS:     187401 HIT:      58739 MISS:     128662 MSHR_MERGE:          0
cpu0->cpu0_L2C PREFETCH     ACCESS:    2675494 HIT:    1573991 MISS:    1101503 MSHR_MERGE:     413227
cpu0->cpu0_L2C WRITE        ACCESS:     265787 HIT:     265471 MISS:        316 MSHR_MERGE:          0
cpu0->cpu0_L2C TRANSLATION  ACCESS:      13592 HIT:        163 MISS:      13429 MSHR_MERGE:          0
cpu0->cpu0_L2C PREFETCH REQUESTED:    2675672 ISSUED:    2675494 USEFUL:     622630 USELESS:      65608
cpu0->cpu0_L2C AVERAGE MISS LATENCY: 54.22 cycles
cpu0->cpu0_L1I TOTAL        ACCESS:     436787 HIT:     436787 MISS:          0 MSHR_MERGE:          0
cpu0->cpu0_L1I LOAD         ACCESS:     436787 HIT:     436787 MISS:          0 MSHR_MERGE:          0
cpu0->cpu0_L1I RFO          ACCESS:          0 HIT:          0 MISS:          0 MSHR_MERGE:          0
cpu0->cpu0_L1I PREFETCH     ACCESS:          0 HIT:          0 MISS:          0 MSHR_MERGE:          0
cpu0->cpu0_L1I WRITE        ACCESS:          0 HIT:          0 MISS:          0 MSHR_MERGE:          0
cpu0->cpu0_L1I TRANSLATION  ACCESS:          0 HIT:          0 MISS:          0 MSHR_MERGE:          0
cpu0->cpu0_L1I PREFETCH REQUESTED:          0 ISSUED:          0 USEFUL:          0 USELESS:          0
cpu0->cpu0_L1I AVERAGE MISS LATENCY: - cycles
cpu0->cpu0_L1D TOTAL        ACCESS:   17882714 HIT:   14300247 MISS:    3582467 MSHR_MERGE:     828710
cpu0->cpu0_L1D LOAD         ACCESS:   12696128 HIT:    9613202 MISS:    3082926 MSHR_MERGE:     530164
cpu0->cpu0_L1D RFO          ACCESS:          0 HIT:          0 MISS:          0 MSHR_MERGE:          0
cpu0->cpu0_L1D PREFETCH     ACCESS:          0 HIT:          0 MISS:          0 MSHR_MERGE:          0
cpu0->cpu0_L1D WRITE        ACCESS:    5163385 HIT:    4677436 MISS:     485949 MSHR_MERGE:     298546
cpu0->cpu0_L1D TRANSLATION  ACCESS:      23201 HIT:       9609 MISS:      13592 MSHR_MERGE:          0
cpu0->cpu0_L1D PREFETCH REQUESTED:          0 ISSUED:          0 USEFUL:          0 USELESS:          0
cpu0->cpu0_L1D AVERAGE MISS LATENCY: 41.76 cycles
cpu0->cpu0_ITLB TOTAL        ACCESS:     406349 HIT:     406349 MISS:          0 MSHR_MERGE:          0
cpu0->cpu0_ITLB LOAD         ACCESS:     406349 HIT:     406349 MISS:          0 MSHR_MERGE:          0
cpu0->cpu0_ITLB RFO          ACCESS:          0 HIT:          0 MISS:          0 MSHR_MERGE:          0
cpu0->cpu0_ITLB PREFETCH     ACCESS:          0 HIT:          0 MISS:          0 MSHR_MERGE:          0
cpu0->cpu0_ITLB WRITE        ACCESS:          0 HIT:          0 MISS:          0 MSHR_MERGE:          0
cpu0->cpu0_ITLB TRANSLATION  ACCESS:          0 HIT:          0 MISS:          0 MSHR_MERGE:          0
cpu0->cpu0_ITLB PREFETCH REQUESTED:          0 ISSUED:          0 USEFUL:          0 USELESS:          0
cpu0->cpu0_ITLB AVERAGE MISS LATENCY: - cycles
cpu0->cpu0_DTLB TOTAL        ACCESS:   16834360 HIT:   15284485 MISS:    1549875 MSHR_MERGE:     249118
cpu0->cpu0_DTLB LOAD         ACCESS:   16834360 HIT:   15284485 MISS:    1549875 MSHR_MERGE:     249118
cpu0->cpu0_DTLB RFO          ACCESS:          0 HIT:          0 MISS:          0 MSHR_MERGE:          0
cpu0->cpu0_DTLB PREFETCH     ACCESS:          0 HIT:          0 MISS:          0 MSHR_MERGE:          0
cpu0->cpu0_DTLB WRITE        ACCESS:          0 HIT:          0 MISS:          0 MSHR_MERGE:          0
cpu0->cpu0_DTLB TRANSLATION  ACCESS:          0 HIT:          0 MISS:          0 MSHR_MERGE:          0
cpu0->cpu0_DTLB PREFETCH REQUESTED:          0 ISSUED:          0 USEFUL:          0 USELESS:          0
cpu0->cpu0_DTLB AVERAGE MISS LATENCY: 9.374 cycles
cpu0->LLC TOTAL        ACCESS:    2543640 HIT:    1419070 MISS:    1124570 MSHR_MERGE:          0
cpu0->LLC LOAD         ACCESS:    1512832 HIT:    1081727 MISS:     431105 MSHR_MERGE:          0
cpu0->LLC RFO          ACCESS:     128662 HIT:     126761 MISS:       1901 MSHR_MERGE:          0
cpu0->LLC PREFETCH     ACCESS:     688276 HIT:      14455 MISS:     673821 MSHR_MERGE:          0
cpu0->LLC WRITE        ACCESS:     200441 HIT:     196099 MISS:       4342 MSHR_MERGE:          0
cpu0->LLC TRANSLATION  ACCESS:      13429 HIT:         28 MISS:      13401 MSHR_MERGE:          0
cpu0->LLC PREFETCH REQUESTED:          0 ISSUED:          0 USEFUL:          0 USELESS:          0
cpu0->LLC AVERAGE MISS LATENCY: 135.7 cycles

DRAM Statistics

Channel 0 RQ ROW_BUFFER_HIT:     220916
  ROW_BUFFER_MISS:     899309
  AVG DBUS CONGESTED CYCLE: 15.34
Channel 0 WQ ROW_BUFFER_HIT:       1496
  ROW_BUFFER_MISS:       5365
  FULL:          0
Channel 0 REFRESHES ISSUED:      12796
