[VMEM] WARNING: physical memory size is smaller than virtual memory size.
WARNING: option --warmup_instructions is deprecated. Use --warmup-instructions instead.
WARNING: option --simulation_instructions is deprecated. Use --simulation-instructions instead.

*** ChampSim Multicore Out-of-Order Simulator ***
Warmup Instructions: 20000000
Simulation Instructions: 50000000
Number of CPUs: 1
Page size: 8192

Off-chip DRAM Size: 16 GiB Channels: 1 Width: 64-bit Data Rate: 3205 MT/s
Heartbeat CPU 0 instructions: 10000003 cycles: 9158127 heartbeat IPC: 1.092 cumulative IPC: 1.092 (Simulation time: 00 hr 01 min 09 sec)
Warmup finished CPU 0 instructions: 20000001 cycles: 16829351 cumulative IPC: 1.188 (Simulation time: 00 hr 02 min 11 sec)
Warmup complete CPU 0 instructions: 20000001 cycles: 16829351 cumulative IPC: 1.188 (Simulation time: 00 hr 02 min 11 sec)
Heartbeat CPU 0 instructions: 20000005 cycles: 16829352 heartbeat IPC: 1.304 cumulative IPC: 4 (Simulation time: 00 hr 02 min 11 sec)
Heartbeat CPU 0 instructions: 30000006 cycles: 45213490 heartbeat IPC: 0.3523 cumulative IPC: 0.3523 (Simulation time: 00 hr 39 min 01 sec)
Heartbeat CPU 0 instructions: 40000008 cycles: 73678084 heartbeat IPC: 0.3513 cumulative IPC: 0.3518 (Simulation time: 01 hr 13 min 42 sec)
Heartbeat CPU 0 instructions: 50000008 cycles: 102195289 heartbeat IPC: 0.3507 cumulative IPC: 0.3514 (Simulation time: 01 hr 19 min 15 sec)
Heartbeat CPU 0 instructions: 60000011 cycles: 129191274 heartbeat IPC: 0.3704 cumulative IPC: 0.356 (Simulation time: 01 hr 21 min 09 sec)
Simulation finished CPU 0 instructions: 50000000 cycles: 138735223 cumulative IPC: 0.3604 (Simulation time: 01 hr 23 min 13 sec)
Simulation complete CPU 0 instructions: 50000000 cycles: 138735223 cumulative IPC: 0.3604 (Simulation time: 01 hr 23 min 13 sec)

ChampSim completed all CPUs

=== Simulation ===
CPU 0 runs traces/620.omnetpp_s-874B.champsimtrace.xz

Region of Interest Statistics

CPU 0 cumulative IPC: 0.3604 instructions: 50000000 cycles: 138735223
CPU 0 Branch Prediction Accuracy: 96.16% MPKI: 7.99 Average ROB Occupancy at Mispredict: 42.12
Branch type MPKI
BRANCH_DIRECT_JUMP: 0.9384
BRANCH_INDIRECT: 0.1208
BRANCH_CONDITIONAL: 5.805
BRANCH_DIRECT_CALL: 0.00236
BRANCH_INDIRECT_CALL: 0.7298
BRANCH_RETURN: 0.3936

cpu0->cpu0_STLB TOTAL        ACCESS:     827877 HIT:     690780 MISS:     137097 MSHR_MERGE:          0
cpu0->cpu0_STLB LOAD         ACCESS:     827877 HIT:     690780 MISS:     137097 MSHR_MERGE:          0
cpu0->cpu0_STLB RFO          ACCESS:          0 HIT:          0 MISS:          0 MSHR_MERGE:          0
cpu0->cpu0_STLB PREFETCH     ACCESS:          0 HIT:          0 MISS:          0 MSHR_MERGE:          0
cpu0->cpu0_STLB WRITE        ACCESS:          0 HIT:          0 MISS:          0 MSHR_MERGE:          0
cpu0->cpu0_STLB TRANSLATION  ACCESS:          0 HIT:          0 MISS:          0 MSHR_MERGE:          0
cpu0->cpu0_STLB PREFETCH REQUESTED:          0 ISSUED:          0 USEFUL:          0 USELESS:          0
cpu0->cpu0_STLB AVERAGE MISS LATENCY: 340.5 cycles
cpu0->cpu0_L2C TOTAL        ACCESS:    3551052 HIT:    1552478 MISS:    1998574 MSHR_MERGE:     222897
cpu0->cpu0_L2C LOAD         ACCESS:     933814 HIT:     378662 MISS:     555152 MSHR_MERGE:      26354
cpu0->cpu0_L2C RFO          ACCESS:     138186 HIT:      67894 MISS:      70292 MSHR_MERGE:       2895
cpu0->cpu0_L2C PREFETCH     ACCESS:    1677357 HIT:     586475 MISS:    1090882 MSHR_MERGE:     193648
cpu0->cpu0_L2C WRITE        ACCESS:     508374 HIT:     504505 MISS:       3869 MSHR_MERGE:          0
cpu0->cpu0_L2C TRANSLATION  ACCESS:     293321 HIT:      14942 MISS:     278379 MSHR_MERGE:          0
cpu0->cpu0_L2C PREFETCH REQUESTED:    1679213 ISSUED:    1677357 USEFUL:     219753 USELESS:     675471
cpu0->cpu0_L2C AVERAGE MISS LATENCY: 137.3 cycles
cpu0->cpu0_L1I TOTAL        ACCESS:    8091950 HIT:    8066822 MISS:      25128 MSHR_MERGE:       6642
cpu0->cpu0_L1I LOAD         ACCESS:    8091950 HIT:    8066822 MISS:      25128 MSHR_MERGE:       6642
cpu0->cpu0_L1I RFO          ACCESS:          0 HIT:          0 MISS:          0 MSHR_MERGE:          0
cpu0->cpu0_L1I PREFETCH     ACCESS:          0 HIT:          0 MISS:          0 MSHR_MERGE:          0
cpu0->cpu0_L1I WRITE        ACCESS:          0 HIT:          0 MISS:          0 MSHR_MERGE:          0
cpu0->cpu0_L1I TRANSLATION  ACCESS:          0 HIT:          0 MISS:          0 MSHR_MERGE:          0
cpu0->cpu0_L1I PREFETCH REQUESTED:          0 ISSUED:          0 USEFUL:          0 USELESS:          0
cpu0->cpu0_L1I AVERAGE MISS LATENCY: 24.8 cycles
cpu0->cpu0_L1D TOTAL        ACCESS:   18939643 HIT:   17230145 MISS:    1709498 MSHR_MERGE:     362654
cpu0->cpu0_L1D LOAD         ACCESS:    9602717 HIT:    8506859 MISS:    1095858 MSHR_MERGE:     180527
cpu0->cpu0_L1D RFO          ACCESS:          0 HIT:          0 MISS:          0 MSHR_MERGE:          0
cpu0->cpu0_L1D PREFETCH     ACCESS:          0 HIT:          0 MISS:          0 MSHR_MERGE:          0
cpu0->cpu0_L1D WRITE        ACCESS:    9035664 HIT:    8715665 MISS:     319999 MSHR_MERGE:     181807
cpu0->cpu0_L1D TRANSLATION  ACCESS:     301262 HIT:       7621 MISS:     293641 MSHR_MERGE:        320
cpu0->cpu0_L1D PREFETCH REQUESTED:          0 ISSUED:          0 USEFUL:          0 USELESS:          0
cpu0->cpu0_L1D AVERAGE MISS LATENCY: 101 cycles
cpu0->cpu0_ITLB TOTAL        ACCESS:    7470240 HIT:    7470045 MISS:        195 MSHR_MERGE:         91
cpu0->cpu0_ITLB LOAD         ACCESS:    7470240 HIT:    7470045 MISS:        195 MSHR_MERGE:         91
cpu0->cpu0_ITLB RFO          ACCESS:          0 HIT:          0 MISS:          0 MSHR_MERGE:          0
cpu0->cpu0_ITLB PREFETCH     ACCESS:          0 HIT:          0 MISS:          0 MSHR_MERGE:          0
cpu0->cpu0_ITLB WRITE        ACCESS:          0 HIT:          0 MISS:          0 MSHR_MERGE:          0
cpu0->cpu0_ITLB TRANSLATION  ACCESS:          0 HIT:          0 MISS:          0 MSHR_MERGE:          0
cpu0->cpu0_ITLB PREFETCH REQUESTED:          0 ISSUED:          0 USEFUL:          0 USELESS:          0
cpu0->cpu0_ITLB AVERAGE MISS LATENCY: 192.5 cycles
cpu0->cpu0_DTLB TOTAL        ACCESS:   17334151 HIT:   16387915 MISS:     946236 MSHR_MERGE:     118462
cpu0->cpu0_DTLB LOAD         ACCESS:   17334151 HIT:   16387915 MISS:     946236 MSHR_MERGE:     118462
cpu0->cpu0_DTLB RFO          ACCESS:          0 HIT:          0 MISS:          0 MSHR_MERGE:          0
cpu0->cpu0_DTLB PREFETCH     ACCESS:          0 HIT:          0 MISS:          0 MSHR_MERGE:          0
cpu0->cpu0_DTLB WRITE        ACCESS:          0 HIT:          0 MISS:          0 MSHR_MERGE:          0
cpu0->cpu0_DTLB TRANSLATION  ACCESS:          0 HIT:          0 MISS:          0 MSHR_MERGE:          0
cpu0->cpu0_DTLB PREFETCH REQUESTED:          0 ISSUED:          0 USEFUL:          0 USELESS:          0
cpu0->cpu0_DTLB AVERAGE MISS LATENCY: 60.53 cycles
cpu0->LLC TOTAL        ACCESS:    2176991 HIT:     509626 MISS:    1667365 MSHR_MERGE:        381
cpu0->LLC LOAD         ACCESS:     528798 HIT:     126671 MISS:     402127 MSHR_MERGE:          4
cpu0->LLC RFO          ACCESS:      67397 HIT:       9744 MISS:      57653 MSHR_MERGE:          5
cpu0->LLC PREFETCH     ACCESS:     897234 HIT:     173160 MISS:     724074 MSHR_MERGE:        372
cpu0->LLC WRITE        ACCESS:     405183 HIT:     146168 MISS:     259015 MSHR_MERGE:          0
cpu0->LLC TRANSLATION  ACCESS:     278379 HIT:      53883 MISS:     224496 MSHR_MERGE:          0
cpu0->LLC PREFETCH REQUESTED:          0 ISSUED:          0 USEFUL:          0 USELESS:          0
cpu0->LLC AVERAGE MISS LATENCY: 115.6 cycles

DRAM Statistics

Channel 0 RQ ROW_BUFFER_HIT:      27182
  ROW_BUFFER_MISS:    1380662
  AVG DBUS CONGESTED CYCLE: 19.34
Channel 0 WQ ROW_BUFFER_HIT:      79370
  ROW_BUFFER_MISS:     214968
  FULL:          0
Channel 0 REFRESHES ISSUED:      11561
