[VMEM] WARNING: physical memory size is smaller than virtual memory size.
WARNING: option --warmup_instructions is deprecated. Use --warmup-instructions instead.
WARNING: option --simulation_instructions is deprecated. Use --simulation-instructions instead.

*** ChampSim Multicore Out-of-Order Simulator ***
Warmup Instructions: 20000000
Simulation Instructions: 50000000
Number of CPUs: 1
Page size: 8192

Off-chip DRAM Size: 16 GiB Channels: 1 Width: 64-bit Data Rate: 3205 MT/s
Heartbeat CPU 0 instructions: 10000000 cycles: 5068351 heartbeat IPC: 1.973 cumulative IPC: 1.973 (Simulation time: 00 hr 00 min 46 sec)
Heartbeat CPU 0 instructions: 20000000 cycles: 10128280 heartbeat IPC: 1.976 cumulative IPC: 1.975 (Simulation time: 00 hr 01 min 32 sec)
Warmup finished CPU 0 instructions: 20000000 cycles: 10128280 cumulative IPC: 1.975 (Simulation time: 00 hr 01 min 32 sec)
Warmup complete CPU 0 instructions: 20000000 cycles: 10128280 cumulative IPC: 1.975 (Simulation time: 00 hr 01 min 32 sec)
Heartbeat CPU 0 instructions: 30000003 cycles: 17908779 heartbeat IPC: 1.285 cumulative IPC: 1.285 (Simulation time: 00 hr 02 min 32 sec)
Heartbeat CPU 0 instructions: 40000003 cycles: 25679438 heartbeat IPC: 1.287 cumulative IPC: 1.286 (Simulation time: 00 hr 03 min 34 sec)
Heartbeat CPU 0 instructions: 50000003 cycles: 33451342 heartbeat IPC: 1.287 cumulative IPC: 1.286 (Simulation time: 00 hr 04 min 36 sec)
Heartbeat CPU 0 instructions: 60000005 cycles: 41210705 heartbeat IPC: 1.289 cumulative IPC: 1.287 (Simulation time: 00 hr 05 min 39 sec)
Simulation finished CPU 0 instructions: 50000001 cycles: 38845815 cumulative IPC: 1.287 (Simulation time: 00 hr 06 min 40 sec)
Simulation complete CPU 0 instructions: 50000001 cycles: 38845815 cumulative IPC: 1.287 (Simulation time: 00 hr 06 min 40 sec)

ChampSim completed all CPUs

=== Simulation ===
CPU 0 runs traces/603.bwaves_s-1740B.champsimtrace.xz

Region of Interest Statistics

CPU 0 cumulative IPC: 1.287 instructions: 50000001 cycles: 38845815
CPU 0 Branch Prediction Accuracy: 99.97% MPKI: 0.00734 Average ROB Occupancy at Mispredict: 95.65
Branch type MPKI
BRANCH_DIRECT_JUMP: 0
BRANCH_INDIRECT: 0
BRANCH_CONDITIONAL: 0.00734
BRANCH_DIRECT_CALL: 0
BRANCH_INDIRECT_CALL: 0
BRANCH_RETURN: 0

cpu0->cpu0_STLB TOTAL        ACCESS:       7425 HIT:        365 MISS:       7060 MSHR_MERGE:          0
cpu0->cpu0_STLB LOAD         ACCESS:       7425 HIT:        365 MISS:       7060 MSHR_MERGE:          0
cpu0->cpu0_STLB RFO          ACCESS:          0 HIT:          0 MISS:          0 MSHR_MERGE:          0
cpu0->cpu0_STLB PREFETCH     ACCESS:          0 HIT:          0 MISS:          0 MSHR_MERGE:          0
cpu0->cpu0_STLB WRITE        ACCESS:          0 HIT:          0 MISS:          0 MSHR_MERGE:          0
cpu0->cpu0_STLB TRANSLATION  ACCESS:          0 HIT:          0 MISS:          0 MSHR_MERGE:          0
cpu0->cpu0_STLB PREFETCH REQUESTED:          0 ISSUED:          0 USEFUL:          0 USELESS:          0
cpu0->cpu0_STLB AVERAGE MISS LATENCY: 694.4 cycles
cpu0->cpu0_L2C TOTAL        ACCESS:    4044287 HIT:    2187224 MISS:    1857063 MSHR_MERGE:     615512
cpu0->cpu0_L2C LOAD         ACCESS:    1020533 HIT:     987690 MISS:      32843 MSHR_MERGE:      15052
cpu0->cpu0_L2C RFO          ACCESS:      32754 HIT:       8392 MISS:      24362 MSHR_MERGE:          0
cpu0->cpu0_L2C PREFETCH     ACCESS:    2941068 HIT:    1151696 MISS:    1789372 MSHR_MERGE:     600460
cpu0->cpu0_L2C WRITE        ACCESS:      36406 HIT:      36369 MISS:         37 MSHR_MERGE:          0
cpu0->cpu0_L2C TRANSLATION  ACCESS:      13526 HIT:       3077 MISS:      10449 MSHR_MERGE:          0
cpu0->cpu0_L2C PREFETCH REQUESTED:    3137115 ISSUED:    2941058 USEFUL:     914749 USELESS:        284
cpu0->cpu0_L2C AVERAGE MISS LATENCY: 149.7 cycles
cpu0->cpu0_L1I TOTAL        ACCESS:   10628942 HIT:   10628942 MISS:          0 MSHR_MERGE:          0
cpu0->cpu0_L1I LOAD         ACCESS:   10628942 HIT:   10628942 MISS:          0 MSHR_MERGE:          0
cpu0->cpu0_L1I RFO          ACCESS:          0 HIT:          0 MISS:          0 MSHR_MERGE:          0
cpu0->cpu0_L1I PREFETCH     ACCESS:          0 HIT:          0 MISS:          0 MSHR_MERGE:          0
cpu0->cpu0_L1I WRITE        ACCESS:          0 HIT:          0 MISS:          0 MSHR_MERGE:          0
cpu0->cpu0_L1I TRANSLATION  ACCESS:          0 HIT:          0 MISS:          0 MSHR_MERGE:          0
cpu0->cpu0_L1I PREFETCH REQUESTED:          0 ISSUED:          0 USEFUL:          0 USELESS:          0
cpu0->cpu0_L1I AVERAGE MISS LATENCY: - cycles
cpu0->cpu0_L1D TOTAL        ACCESS:   17060384 HIT:   15957975 MISS:    1102409 MSHR_MERGE:      35459
cpu0->cpu0_L1D LOAD         ACCESS:   14229618 HIT:   13201584 MISS:    1028034 MSHR_MERGE:       7406
cpu0->cpu0_L1D RFO          ACCESS:          0 HIT:          0 MISS:          0 MSHR_MERGE:          0
cpu0->cpu0_L1D PREFETCH     ACCESS:          0 HIT:          0 MISS:          0 MSHR_MERGE:          0
cpu0->cpu0_L1D WRITE        ACCESS:    2816699 HIT:    2756079 MISS:      60620 MSHR_MERGE:      27824
cpu0->cpu0_L1D TRANSLATION  ACCESS:      14067 HIT:        312 MISS:      13755 MSHR_MERGE:        229
cpu0->cpu0_L1D PREFETCH REQUESTED:          0 ISSUED:          0 USEFUL:          0 USELESS:          0
cpu0->cpu0_L1D AVERAGE MISS LATENCY: 18.65 cycles
cpu0->cpu0_ITLB TOTAL        ACCESS:    9176390 HIT:    9176390 MISS:          0 MSHR_MERGE:          0
cpu0->cpu0_ITLB LOAD         ACCESS:    9176390 HIT:    9176390 MISS:          0 MSHR_MERGE:          0
cpu0->cpu0_ITLB RFO          ACCESS:          0 HIT:          0 MISS:          0 MSHR_MERGE:          0
cpu0->cpu0_ITLB PREFETCH     ACCESS:          0 HIT:          0 MISS:          0 MSHR_MERGE:          0
cpu0->cpu0_ITLB WRITE        ACCESS:          0 HIT:          0 MISS:          0 MSHR_MERGE:          0
cpu0->cpu0_ITLB TRANSLATION  ACCESS:          0 HIT:          0 MISS:          0 MSHR_MERGE:          0
cpu0->cpu0_ITLB PREFETCH REQUESTED:          0 ISSUED:          0 USEFUL:          0 USELESS:          0
cpu0->cpu0_ITLB AVERAGE MISS LATENCY: - cycles
cpu0->cpu0_DTLB TOTAL        ACCESS:   16405607 HIT:   16392827 MISS:      12780 MSHR_MERGE:       5355
cpu0->cpu0_DTLB LOAD         ACCESS:   16405607 HIT:   16392827 MISS:      12780 MSHR_MERGE:       5355
cpu0->cpu0_DTLB RFO          ACCESS:          0 HIT:          0 MISS:          0 MSHR_MERGE:          0
cpu0->cpu0_DTLB PREFETCH     ACCESS:          0 HIT:          0 MISS:          0 MSHR_MERGE:          0
cpu0->cpu0_DTLB WRITE        ACCESS:          0 HIT:          0 MISS:          0 MSHR_MERGE:          0
cpu0->cpu0_DTLB TRANSLATION  ACCESS:          0 HIT:          0 MISS:          0 MSHR_MERGE:          0
cpu0->cpu0_DTLB PREFETCH REQUESTED:          0 ISSUED:          0 USEFUL:          0 USELESS:          0
cpu0->cpu0_DTLB AVERAGE MISS LATENCY: 665.2 cycles
cpu0->LLC TOTAL        ACCESS:    1266014 HIT:     211130 MISS:    1054884 MSHR_MERGE:      39815
cpu0->LLC LOAD         ACCESS:      17791 HIT:       7314 MISS:      10477 MSHR_MERGE:         85
cpu0->LLC RFO          ACCESS:      24362 HIT:          0 MISS:      24362 MSHR_MERGE:          0
cpu0->LLC PREFETCH     ACCESS:    1188912 HIT:     201403 MISS:     987509 MSHR_MERGE:      39730
cpu0->LLC WRITE        ACCESS:      24500 HIT:       2407 MISS:      22093 MSHR_MERGE:          0
cpu0->LLC TRANSLATION  ACCESS:      10449 HIT:          6 MISS:      10443 MSHR_MERGE:          0
cpu0->LLC PREFETCH REQUESTED:          0 ISSUED:          0 USEFUL:          0 USELESS:          0
cpu0->LLC AVERAGE MISS LATENCY: 116.6 cycles

DRAM Statistics

Channel 0 RQ ROW_BUFFER_HIT:      20344
  ROW_BUFFER_MISS:     972632
  AVG DBUS CONGESTED CYCLE: 4.002
Channel 0 WQ ROW_BUFFER_HIT:       1707
  ROW_BUFFER_MISS:      23474
  FULL:          0
Channel 0 REFRESHES ISSUED:       3237
