[VMEM] WARNING: physical memory size is smaller than virtual memory size.
WARNING: option --warmup_instructions is deprecated. Use --warmup-instructions instead.
WARNING: option --simulation_instructions is deprecated. Use --simulation-instructions instead.

*** ChampSim Multicore Out-of-Order Simulator ***
Warmup Instructions: 20000000
Simulation Instructions: 50000000
Number of CPUs: 1
Page size: 262144

Off-chip DRAM Size: 16 GiB Channels: 1 Width: 64-bit Data Rate: 3205 MT/s
Heartbeat CPU 0 instructions: 10000001 cycles: 5770131 heartbeat IPC: 1.733 cumulative IPC: 1.733 (Simulation time: 00 hr 00 min 57 sec)
Warmup finished CPU 0 instructions: 20000000 cycles: 11344056 cumulative IPC: 1.763 (Simulation time: 00 hr 01 min 53 sec)
Warmup complete CPU 0 instructions: 20000000 cycles: 11344056 cumulative IPC: 1.763 (Simulation time: 00 hr 01 min 53 sec)
Heartbeat CPU 0 instructions: 20000004 cycles: 11344057 heartbeat IPC: 1.794 cumulative IPC: 4 (Simulation time: 00 hr 01 min 53 sec)
Heartbeat CPU 0 instructions: 30000006 cycles: 30729945 heartbeat IPC: 0.5158 cumulative IPC: 0.5158 (Simulation time: 00 hr 03 min 44 sec)
Heartbeat CPU 0 instructions: 40000008 cycles: 50312219 heartbeat IPC: 0.5107 cumulative IPC: 0.5132 (Simulation time: 00 hr 05 min 34 sec)
Heartbeat CPU 0 instructions: 50000008 cycles: 69747874 heartbeat IPC: 0.5145 cumulative IPC: 0.5137 (Simulation time: 00 hr 07 min 23 sec)
Heartbeat CPU 0 instructions: 60000011 cycles: 88453950 heartbeat IPC: 0.5346 cumulative IPC: 0.5187 (Simulation time: 00 hr 09 min 10 sec)
Simulation finished CPU 0 instructions: 50000001 cycles: 95522799 cumulative IPC: 0.5234 (Simulation time: 00 hr 10 min 54 sec)
Simulation complete CPU 0 instructions: 50000001 cycles: 95522799 cumulative IPC: 0.5234 (Simulation time: 00 hr 10 min 54 sec)

ChampSim completed all CPUs

=== Simulation ===
CPU 0 runs traces/620.omnetpp_s-874B.champsimtrace.xz

Region of Interest Statistics

CPU 0 cumulative IPC: 0.5234 instructions: 50000001 cycles: 95522799
CPU 0 Branch Prediction Accuracy: 96.16% MPKI: 7.99 Average ROB Occupancy at Mispredict: 58.61
Branch type MPKI
BRANCH_DIRECT_JUMP: 0.9384
BRANCH_INDIRECT: 0.1208
BRANCH_CONDITIONAL: 5.805
BRANCH_DIRECT_CALL: 0.00236
BRANCH_INDIRECT_CALL: 0.7298
BRANCH_RETURN: 0.3936

cpu0->cpu0_STLB TOTAL        ACCESS:     271327 HIT:     271319 MISS:          8 MSHR_MERGE:          0
cpu0->cpu0_STLB LOAD         ACCESS:     271327 HIT:     271319 MISS:          8 MSHR_MERGE:          0
cpu0->cpu0_STLB RFO          ACCESS:          0 HIT:          0 MISS:          0 MSHR_MERGE:          0
cpu0->cpu0_STLB PREFETCH     ACCESS:          0 HIT:          0 MISS:          0 MSHR_MERGE:          0
cpu0->cpu0_STLB WRITE        ACCESS:          0 HIT:          0 MISS:          0 MSHR_MERGE:          0
cpu0->cpu0_STLB TRANSLATION  ACCESS:          0 HIT:          0 MISS:          0 MSHR_MERGE:          0
cpu0->cpu0_STLB PREFETCH REQUESTED:          0 ISSUED:          0 USEFUL:          0 USELESS:          0
cpu0->cpu0_STLB AVERAGE MISS LATENCY: 702.4 cycles
cpu0->cpu0_L2C TOTAL        ACCESS:    2404274 HIT:    1164612 MISS:    1239662 MSHR_MERGE:     110820
cpu0->cpu0_L2C LOAD         ACCESS:     888775 HIT:     337530 MISS:     551245 MSHR_MERGE:      23859
cpu0->cpu0_L2C RFO          ACCESS:     135768 HIT:      58299 MISS:      77469 MSHR_MERGE:       2560
cpu0->cpu0_L2C PREFETCH     ACCESS:     888554 HIT:     279549 MISS:     609005 MSHR_MERGE:      84401
cpu0->cpu0_L2C WRITE        ACCESS:     491161 HIT:     489232 MISS:       1929 MSHR_MERGE:          0
cpu0->cpu0_L2C TRANSLATION  ACCESS:         16 HIT:          2 MISS:         14 MSHR_MERGE:          0
cpu0->cpu0_L2C PREFETCH REQUESTED:     888554 ISSUED:     888554 USEFUL:     167652 USELESS:     356887
cpu0->cpu0_L2C AVERAGE MISS LATENCY: 137.5 cycles
cpu0->cpu0_L1I TOTAL        ACCESS:    8058937 HIT:    8033001 MISS:      25936 MSHR_MERGE:       7433
cpu0->cpu0_L1I LOAD         ACCESS:    8058937 HIT:    8033001 MISS:      25936 MSHR_MERGE:       7433
cpu0->cpu0_L1I RFO          ACCESS:          0 HIT:          0 MISS:          0 MSHR_MERGE:          0
cpu0->cpu0_L1I PREFETCH     ACCESS:          0 HIT:          0 MISS:          0 MSHR_MERGE:          0
cpu0->cpu0_L1I WRITE        ACCESS:          0 HIT:          0 MISS:          0 MSHR_MERGE:          0
cpu0->cpu0_L1I TRANSLATION  ACCESS:          0 HIT:          0 MISS:          0 MSHR_MERGE:          0
cpu0->cpu0_L1I PREFETCH REQUESTED:          0 ISSUED:          0 USEFUL:          0 USELESS:          0
cpu0->cpu0_L1I AVERAGE MISS LATENCY: 27.42 cycles
cpu0->cpu0_L1D TOTAL        ACCESS:   18450880 HIT:   17055576 MISS:    1395304 MSHR_MERGE:     389234
cpu0->cpu0_L1D LOAD         ACCESS:    9415664 HIT:    8356035 MISS:    1059629 MSHR_MERGE:     189352
cpu0->cpu0_L1D RFO          ACCESS:          0 HIT:          0 MISS:          0 MSHR_MERGE:          0
cpu0->cpu0_L1D PREFETCH     ACCESS:          0 HIT:          0 MISS:          0 MSHR_MERGE:          0
cpu0->cpu0_L1D WRITE        ACCESS:    9035200 HIT:    8699541 MISS:     335659 MSHR_MERGE:     199882
cpu0->cpu0_L1D TRANSLATION  ACCESS:         16 HIT:          0 MISS:         16 MSHR_MERGE:          0
cpu0->cpu0_L1D PREFETCH REQUESTED:          0 ISSUED:          0 USEFUL:          0 USELESS:          0
cpu0->cpu0_L1D AVERAGE MISS LATENCY: 94.49 cycles
cpu0->cpu0_ITLB TOTAL        ACCESS:    7216207 HIT:    7216204 MISS:          3 MSHR_MERGE:          1
cpu0->cpu0_ITLB LOAD         ACCESS:    7216207 HIT:    7216204 MISS:          3 MSHR_MERGE:          1
cpu0->cpu0_ITLB RFO          ACCESS:          0 HIT:          0 MISS:          0 MSHR_MERGE:          0
cpu0->cpu0_ITLB PREFETCH     ACCESS:          0 HIT:          0 MISS:          0 MSHR_MERGE:          0
cpu0->cpu0_ITLB WRITE        ACCESS:          0 HIT:          0 MISS:          0 MSHR_MERGE:          0
cpu0->cpu0_ITLB TRANSLATION  ACCESS:          0 HIT:          0 MISS:          0 MSHR_MERGE:          0
cpu0->cpu0_ITLB PREFETCH REQUESTED:          0 ISSUED:          0 USEFUL:          0 USELESS:          0
cpu0->cpu0_ITLB AVERAGE MISS LATENCY: 373 cycles
cpu0->cpu0_DTLB TOTAL        ACCESS:   17109906 HIT:   16809047 MISS:     300859 MSHR_MERGE:      29534
cpu0->cpu0_DTLB LOAD         ACCESS:   17109906 HIT:   16809047 MISS:     300859 MSHR_MERGE:      29534
cpu0->cpu0_DTLB RFO          ACCESS:          0 HIT:          0 MISS:          0 MSHR_MERGE:          0
cpu0->cpu0_DTLB PREFETCH     ACCESS:          0 HIT:          0 MISS:          0 MSHR_MERGE:          0
cpu0->cpu0_DTLB WRITE        ACCESS:          0 HIT:          0 MISS:          0 MSHR_MERGE:          0
cpu0->cpu0_DTLB TRANSLATION  ACCESS:          0 HIT:          0 MISS:          0 MSHR_MERGE:          0
cpu0->cpu0_DTLB PREFETCH REQUESTED:          0 ISSUED:          0 USEFUL:          0 USELESS:          0
cpu0->cpu0_DTLB AVERAGE MISS LATENCY: 4.018 cycles
cpu0->LLC TOTAL        ACCESS:    1511248 HIT:     371288 MISS:    1139960 MSHR_MERGE:          0
cpu0->LLC LOAD         ACCESS:     527385 HIT:     118523 MISS:     408862 MSHR_MERGE:          0
cpu0->LLC RFO          ACCESS:      74909 HIT:      13160 MISS:      61749 MSHR_MERGE:          0
cpu0->LLC PREFETCH     ACCESS:     524604 HIT:     104089 MISS:     420515 MSHR_MERGE:          0
cpu0->LLC WRITE        ACCESS:     384336 HIT:     135516 MISS:     248820 MSHR_MERGE:          0
cpu0->LLC TRANSLATION  ACCESS:         14 HIT:          0 MISS:         14 MSHR_MERGE:          0
cpu0->LLC PREFETCH REQUESTED:          0 ISSUED:          0 USEFUL:          0 USELESS:          0
cpu0->LLC AVERAGE MISS LATENCY: 104.7 cycles

DRAM Statistics

Channel 0 RQ ROW_BUFFER_HIT:      59578
  ROW_BUFFER_MISS:     831475
  AVG DBUS CONGESTED CYCLE: 22.32
Channel 0 WQ ROW_BUFFER_HIT:      76376
  ROW_BUFFER_MISS:     200817
  FULL:          0
Channel 0 REFRESHES ISSUED:       7960
