[VMEM] WARNING: physical memory size is smaller than virtual memory size.

*** ChampSim Multicore Out-of-Order Simulator ***
Warmup Instructions: 100000000
Simulation Instructions: 500000000
Number of CPUs: 1
Page size: 4096

Off-chip DRAM Size: 16 GiB Channels: 1 Width: 64-bit Data Rate: 3205 MT/s
Heartbeat CPU 0 instructions: 10000001 cycles: 2804540 heartbeat IPC: 3.566 cumulative IPC: 3.566 (Simulation time: 00 hr 01 min 18 sec)
Heartbeat CPU 0 instructions: 20000001 cycles: 5601945 heartbeat IPC: 3.575 cumulative IPC: 3.57 (Simulation time: 00 hr 02 min 49 sec)
Heartbeat CPU 0 instructions: 30000003 cycles: 8403478 heartbeat IPC: 3.569 cumulative IPC: 3.57 (Simulation time: 00 hr 04 min 23 sec)
Heartbeat CPU 0 instructions: 40000006 cycles: 11200264 heartbeat IPC: 3.576 cumulative IPC: 3.571 (Simulation time: 00 hr 05 min 58 sec)
Heartbeat CPU 0 instructions: 50000006 cycles: 13996760 heartbeat IPC: 3.576 cumulative IPC: 3.572 (Simulation time: 00 hr 07 min 29 sec)
Heartbeat CPU 0 instructions: 60000008 cycles: 16791453 heartbeat IPC: 3.578 cumulative IPC: 3.573 (Simulation time: 00 hr 09 min 02 sec)
Heartbeat CPU 0 instructions: 70000010 cycles: 19588561 heartbeat IPC: 3.575 cumulative IPC: 3.574 (Simulation time: 00 hr 10 min 32 sec)
Heartbeat CPU 0 instructions: 80000011 cycles: 22384509 heartbeat IPC: 3.577 cumulative IPC: 3.574 (Simulation time: 00 hr 12 min 01 sec)
Heartbeat CPU 0 instructions: 90000012 cycles: 25179703 heartbeat IPC: 3.578 cumulative IPC: 3.574 (Simulation time: 00 hr 13 min 32 sec)
Warmup finished CPU 0 instructions: 100000003 cycles: 27975353 cumulative IPC: 3.575 (Simulation time: 00 hr 15 min 02 sec)
Warmup complete CPU 0 instructions: 100000003 cycles: 27975353 cumulative IPC: 3.575 (Simulation time: 00 hr 15 min 02 sec)
Heartbeat CPU 0 instructions: 100000013 cycles: 27975355 heartbeat IPC: 3.577 cumulative IPC: 5 (Simulation time: 00 hr 15 min 02 sec)
Heartbeat CPU 0 instructions: 110000013 cycles: 39315217 heartbeat IPC: 0.8818 cumulative IPC: 0.8818 (Simulation time: 00 hr 18 min 17 sec)
Heartbeat CPU 0 instructions: 120000013 cycles: 50706051 heartbeat IPC: 0.8779 cumulative IPC: 0.8799 (Simulation time: 00 hr 21 min 33 sec)
Heartbeat CPU 0 instructions: 130000014 cycles: 62009574 heartbeat IPC: 0.8847 cumulative IPC: 0.8815 (Simulation time: 00 hr 24 min 45 sec)
Heartbeat CPU 0 instructions: 140000015 cycles: 73315879 heartbeat IPC: 0.8845 cumulative IPC: 0.8822 (Simulation time: 00 hr 27 min 53 sec)
Heartbeat CPU 0 instructions: 150000018 cycles: 84566251 heartbeat IPC: 0.8889 cumulative IPC: 0.8835 (Simulation time: 00 hr 31 min 02 sec)
Heartbeat CPU 0 instructions: 160000019 cycles: 95796941 heartbeat IPC: 0.8904 cumulative IPC: 0.8847 (Simulation time: 00 hr 34 min 13 sec)
Heartbeat CPU 0 instructions: 170000020 cycles: 107084598 heartbeat IPC: 0.8859 cumulative IPC: 0.8849 (Simulation time: 00 hr 37 min 24 sec)
Heartbeat CPU 0 instructions: 180000020 cycles: 118471064 heartbeat IPC: 0.8782 cumulative IPC: 0.884 (Simulation time: 00 hr 40 min 38 sec)
Heartbeat CPU 0 instructions: 190000023 cycles: 129680112 heartbeat IPC: 0.8921 cumulative IPC: 0.8849 (Simulation time: 00 hr 43 min 50 sec)
Heartbeat CPU 0 instructions: 200000024 cycles: 140984724 heartbeat IPC: 0.8846 cumulative IPC: 0.8849 (Simulation time: 00 hr 47 min 03 sec)
Heartbeat CPU 0 instructions: 210000024 cycles: 152234342 heartbeat IPC: 0.8889 cumulative IPC: 0.8852 (Simulation time: 00 hr 50 min 17 sec)
Heartbeat CPU 0 instructions: 220000026 cycles: 163549777 heartbeat IPC: 0.8837 cumulative IPC: 0.8851 (Simulation time: 00 hr 53 min 31 sec)
Heartbeat CPU 0 instructions: 230000028 cycles: 174865656 heartbeat IPC: 0.8837 cumulative IPC: 0.885 (Simulation time: 00 hr 56 min 43 sec)
Heartbeat CPU 0 instructions: 240000029 cycles: 186207775 heartbeat IPC: 0.8817 cumulative IPC: 0.8848 (Simulation time: 00 hr 59 min 56 sec)
Heartbeat CPU 0 instructions: 250000030 cycles: 197559455 heartbeat IPC: 0.8809 cumulative IPC: 0.8845 (Simulation time: 01 hr 03 min 09 sec)
Heartbeat CPU 0 instructions: 260000031 cycles: 208879087 heartbeat IPC: 0.8834 cumulative IPC: 0.8844 (Simulation time: 01 hr 06 min 21 sec)
Heartbeat CPU 0 instructions: 270000034 cycles: 220302392 heartbeat IPC: 0.8754 cumulative IPC: 0.8839 (Simulation time: 01 hr 09 min 37 sec)
Heartbeat CPU 0 instructions: 280000034 cycles: 231546195 heartbeat IPC: 0.8894 cumulative IPC: 0.8842 (Simulation time: 01 hr 12 min 49 sec)
Heartbeat CPU 0 instructions: 290000035 cycles: 242860281 heartbeat IPC: 0.8839 cumulative IPC: 0.8842 (Simulation time: 01 hr 16 min 02 sec)
Heartbeat CPU 0 instructions: 300000036 cycles: 254137601 heartbeat IPC: 0.8867 cumulative IPC: 0.8843 (Simulation time: 01 hr 19 min 14 sec)
Heartbeat CPU 0 instructions: 310000040 cycles: 265365895 heartbeat IPC: 0.8906 cumulative IPC: 0.8846 (Simulation time: 01 hr 22 min 26 sec)
Heartbeat CPU 0 instructions: 320000044 cycles: 276605856 heartbeat IPC: 0.8897 cumulative IPC: 0.8848 (Simulation time: 01 hr 25 min 41 sec)
Heartbeat CPU 0 instructions: 330000044 cycles: 287992699 heartbeat IPC: 0.8782 cumulative IPC: 0.8846 (Simulation time: 01 hr 29 min 03 sec)
Heartbeat CPU 0 instructions: 340000046 cycles: 299314218 heartbeat IPC: 0.8833 cumulative IPC: 0.8845 (Simulation time: 01 hr 32 min 27 sec)
Heartbeat CPU 0 instructions: 350000047 cycles: 310569626 heartbeat IPC: 0.8885 cumulative IPC: 0.8847 (Simulation time: 01 hr 35 min 56 sec)
Heartbeat CPU 0 instructions: 360000050 cycles: 321808461 heartbeat IPC: 0.8898 cumulative IPC: 0.8849 (Simulation time: 01 hr 39 min 44 sec)
Heartbeat CPU 0 instructions: 370000051 cycles: 333027583 heartbeat IPC: 0.8913 cumulative IPC: 0.8851 (Simulation time: 01 hr 43 min 08 sec)
Heartbeat CPU 0 instructions: 380000055 cycles: 344336238 heartbeat IPC: 0.8843 cumulative IPC: 0.8851 (Simulation time: 01 hr 46 min 28 sec)
Heartbeat CPU 0 instructions: 390000057 cycles: 355613213 heartbeat IPC: 0.8868 cumulative IPC: 0.8851 (Simulation time: 01 hr 49 min 47 sec)
Heartbeat CPU 0 instructions: 400000058 cycles: 366967656 heartbeat IPC: 0.8807 cumulative IPC: 0.885 (Simulation time: 01 hr 53 min 06 sec)
Heartbeat CPU 0 instructions: 410000060 cycles: 378149093 heartbeat IPC: 0.8943 cumulative IPC: 0.8853 (Simulation time: 01 hr 56 min 23 sec)
Heartbeat CPU 0 instructions: 420000062 cycles: 389433850 heartbeat IPC: 0.8862 cumulative IPC: 0.8853 (Simulation time: 01 hr 59 min 44 sec)
Heartbeat CPU 0 instructions: 430000066 cycles: 400707305 heartbeat IPC: 0.887 cumulative IPC: 0.8854 (Simulation time: 02 hr 03 min 03 sec)
Heartbeat CPU 0 instructions: 440000069 cycles: 412154956 heartbeat IPC: 0.8735 cumulative IPC: 0.885 (Simulation time: 02 hr 06 min 26 sec)
Heartbeat CPU 0 instructions: 450000071 cycles: 423474633 heartbeat IPC: 0.8834 cumulative IPC: 0.885 (Simulation time: 02 hr 09 min 46 sec)
Heartbeat CPU 0 instructions: 460000072 cycles: 434680963 heartbeat IPC: 0.8924 cumulative IPC: 0.8852 (Simulation time: 02 hr 13 min 06 sec)
Heartbeat CPU 0 instructions: 470000073 cycles: 445956067 heartbeat IPC: 0.8869 cumulative IPC: 0.8852 (Simulation time: 02 hr 16 min 36 sec)
Heartbeat CPU 0 instructions: 480000073 cycles: 457238135 heartbeat IPC: 0.8864 cumulative IPC: 0.8852 (Simulation time: 02 hr 19 min 57 sec)
Heartbeat CPU 0 instructions: 490000075 cycles: 468539945 heartbeat IPC: 0.8848 cumulative IPC: 0.8852 (Simulation time: 02 hr 23 min 17 sec)
Heartbeat CPU 0 instructions: 500000075 cycles: 479846514 heartbeat IPC: 0.8844 cumulative IPC: 0.8852 (Simulation time: 02 hr 26 min 38 sec)
Heartbeat CPU 0 instructions: 510000078 cycles: 491094714 heartbeat IPC: 0.889 cumulative IPC: 0.8853 (Simulation time: 02 hr 30 min 01 sec)
Heartbeat CPU 0 instructions: 520000081 cycles: 502385513 heartbeat IPC: 0.8857 cumulative IPC: 0.8853 (Simulation time: 02 hr 33 min 22 sec)
Heartbeat CPU 0 instructions: 530000085 cycles: 513675789 heartbeat IPC: 0.8857 cumulative IPC: 0.8853 (Simulation time: 02 hr 36 min 36 sec)
Heartbeat CPU 0 instructions: 540000087 cycles: 524947799 heartbeat IPC: 0.8872 cumulative IPC: 0.8854 (Simulation time: 02 hr 39 min 44 sec)
Heartbeat CPU 0 instructions: 550000088 cycles: 536201817 heartbeat IPC: 0.8886 cumulative IPC: 0.8854 (Simulation time: 02 hr 42 min 53 sec)
Heartbeat CPU 0 instructions: 560000088 cycles: 547589382 heartbeat IPC: 0.8782 cumulative IPC: 0.8853 (Simulation time: 02 hr 46 min 04 sec)
Heartbeat CPU 0 instructions: 570000088 cycles: 558983769 heartbeat IPC: 0.8776 cumulative IPC: 0.8851 (Simulation time: 02 hr 49 min 48 sec)
Heartbeat CPU 0 instructions: 580000089 cycles: 570349749 heartbeat IPC: 0.8798 cumulative IPC: 0.885 (Simulation time: 02 hr 53 min 02 sec)
Heartbeat CPU 0 instructions: 590000092 cycles: 581607811 heartbeat IPC: 0.8883 cumulative IPC: 0.8851 (Simulation time: 02 hr 56 min 20 sec)
Simulation finished CPU 0 instructions: 500000000 cycles: 564969544 cumulative IPC: 0.885 (Simulation time: 02 hr 59 min 36 sec)
Simulation complete CPU 0 instructions: 500000000 cycles: 564969544 cumulative IPC: 0.885 (Simulation time: 02 hr 59 min 36 sec)

ChampSim completed all CPUs

=== Simulation ===
CPU 0 runs traces/T1.xz

Region of Interest Statistics

CPU 0 cumulative IPC: 0.885 instructions: 500000000 cycles: 564969544
CPU 0 Branch Prediction Accuracy: 80.62% MPKI: 1.636 Average ROB Occupancy at Mispredict: 300.2
Branch type MPKI
BRANCH_DIRECT_JUMP: 0
BRANCH_INDIRECT: 0
BRANCH_CONDITIONAL: 1.636
BRANCH_DIRECT_CALL: 0
BRANCH_INDIRECT_CALL: 0
BRANCH_RETURN: 0

cpu0->cpu0_STLB TOTAL        ACCESS:     857962 HIT:     751455 MISS:     106507 MSHR_MERGE:          0
cpu0->cpu0_STLB LOAD         ACCESS:     857962 HIT:     751455 MISS:     106507 MSHR_MERGE:          0
cpu0->cpu0_STLB RFO          ACCESS:          0 HIT:          0 MISS:          0 MSHR_MERGE:          0
cpu0->cpu0_STLB PREFETCH     ACCESS:          0 HIT:          0 MISS:          0 MSHR_MERGE:          0
cpu0->cpu0_STLB WRITE        ACCESS:          0 HIT:          0 MISS:          0 MSHR_MERGE:          0
cpu0->cpu0_STLB TRANSLATION  ACCESS:          0 HIT:          0 MISS:          0 MSHR_MERGE:          0
cpu0->cpu0_STLB PREFETCH REQUESTED:          0 ISSUED:          0 USEFUL:          0 USELESS:          0
cpu0->cpu0_STLB AVERAGE MISS LATENCY: 692.2 cycles
cpu0->cpu0_L2C TOTAL        ACCESS:   11737414 HIT:    4280636 MISS:    7456778 MSHR_MERGE:          0
cpu0->cpu0_L2C LOAD         ACCESS:    5189976 HIT:     833046 MISS:    4356930 MSHR_MERGE:          0
cpu0->cpu0_L2C RFO          ACCESS:    3148245 HIT:     171327 MISS:    2976918 MSHR_MERGE:          0
cpu0->cpu0_L2C PREFETCH     ACCESS:          0 HIT:          0 MISS:          0 MSHR_MERGE:          0
cpu0->cpu0_L2C WRITE        ACCESS:    3186623 HIT:    3186499 MISS:        124 MSHR_MERGE:          0
cpu0->cpu0_L2C TRANSLATION  ACCESS:     212570 HIT:      89764 MISS:     122806 MSHR_MERGE:          0
cpu0->cpu0_L2C PREFETCH REQUESTED:          0 ISSUED:          0 USEFUL:          0 USELESS:          0
cpu0->cpu0_L2C AVERAGE MISS LATENCY: 224.3 cycles
cpu0->cpu0_L1I TOTAL        ACCESS:   56666186 HIT:   56666186 MISS:          0 MSHR_MERGE:          0
cpu0->cpu0_L1I LOAD         ACCESS:   56666186 HIT:   56666186 MISS:          0 MSHR_MERGE:          0
cpu0->cpu0_L1I RFO          ACCESS:          0 HIT:          0 MISS:          0 MSHR_MERGE:          0
cpu0->cpu0_L1I PREFETCH     ACCESS:          0 HIT:          0 MISS:          0 MSHR_MERGE:          0
cpu0->cpu0_L1I WRITE        ACCESS:          0 HIT:          0 MISS:          0 MSHR_MERGE:          0
cpu0->cpu0_L1I TRANSLATION  ACCESS:          0 HIT:          0 MISS:          0 MSHR_MERGE:          0
cpu0->cpu0_L1I PREFETCH REQUESTED:          0 ISSUED:          0 USEFUL:          0 USELESS:          0
cpu0->cpu0_L1I AVERAGE MISS LATENCY: - cycles
cpu0->cpu0_L1D TOTAL        ACCESS:  165312541 HIT:  149041432 MISS:   16271109 MSHR_MERGE:    7717548
cpu0->cpu0_L1D LOAD         ACCESS:   73645503 HIT:   68408016 MISS:    5237487 MSHR_MERGE:      47494
cpu0->cpu0_L1D RFO          ACCESS:          0 HIT:          0 MISS:          0 MSHR_MERGE:          0
cpu0->cpu0_L1D PREFETCH     ACCESS:          0 HIT:          0 MISS:          0 MSHR_MERGE:          0
cpu0->cpu0_L1D WRITE        ACCESS:   91453771 HIT:   80632739 MISS:   10821032 MSHR_MERGE:    7670034
cpu0->cpu0_L1D TRANSLATION  ACCESS:     213267 HIT:        677 MISS:     212590 MSHR_MERGE:         20
cpu0->cpu0_L1D PREFETCH REQUESTED:          0 ISSUED:          0 USEFUL:          0 USELESS:          0
cpu0->cpu0_L1D AVERAGE MISS LATENCY: 204.4 cycles
cpu0->cpu0_ITLB TOTAL        ACCESS:   45283204 HIT:   45283204 MISS:          0 MSHR_MERGE:          0
cpu0->cpu0_ITLB LOAD         ACCESS:   45283204 HIT:   45283204 MISS:          0 MSHR_MERGE:          0
cpu0->cpu0_ITLB RFO          ACCESS:          0 HIT:          0 MISS:          0 MSHR_MERGE:          0
cpu0->cpu0_ITLB PREFETCH     ACCESS:          0 HIT:          0 MISS:          0 MSHR_MERGE:          0
cpu0->cpu0_ITLB WRITE        ACCESS:          0 HIT:          0 MISS:          0 MSHR_MERGE:          0
cpu0->cpu0_ITLB TRANSLATION  ACCESS:          0 HIT:          0 MISS:          0 MSHR_MERGE:          0
cpu0->cpu0_ITLB PREFETCH REQUESTED:          0 ISSUED:          0 USEFUL:          0 USELESS:          0
cpu0->cpu0_ITLB AVERAGE MISS LATENCY: - cycles
cpu0->cpu0_DTLB TOTAL        ACCESS:  151454746 HIT:  150492978 MISS:     961768 MSHR_MERGE:     103806
cpu0->cpu0_DTLB LOAD         ACCESS:  151454746 HIT:  150492978 MISS:     961768 MSHR_MERGE:     103806
cpu0->cpu0_DTLB RFO          ACCESS:          0 HIT:          0 MISS:          0 MSHR_MERGE:          0
cpu0->cpu0_DTLB PREFETCH     ACCESS:          0 HIT:          0 MISS:          0 MSHR_MERGE:          0
cpu0->cpu0_DTLB WRITE        ACCESS:          0 HIT:          0 MISS:          0 MSHR_MERGE:          0
cpu0->cpu0_DTLB TRANSLATION  ACCESS:          0 HIT:          0 MISS:          0 MSHR_MERGE:          0
cpu0->cpu0_DTLB PREFETCH REQUESTED:          0 ISSUED:          0 USEFUL:          0 USELESS:          0
cpu0->cpu0_DTLB AVERAGE MISS LATENCY: 91.07 cycles
cpu0->LLC TOTAL        ACCESS:   10433953 HIT:    3493403 MISS:    6940550 MSHR_MERGE:          0
cpu0->LLC LOAD         ACCESS:    4356930 HIT:     516196 MISS:    3840734 MSHR_MERGE:          0
cpu0->LLC RFO          ACCESS:    2976918 HIT:          0 MISS:    2976918 MSHR_MERGE:          0
cpu0->LLC PREFETCH     ACCESS:          0 HIT:          0 MISS:          0 MSHR_MERGE:          0
cpu0->LLC WRITE        ACCESS:    2977299 HIT:    2977200 MISS:         99 MSHR_MERGE:          0
cpu0->LLC TRANSLATION  ACCESS:     122806 HIT:          7 MISS:     122799 MSHR_MERGE:          0
cpu0->LLC PREFETCH REQUESTED:          0 ISSUED:          0 USEFUL:          0 USELESS:          0
cpu0->LLC AVERAGE MISS LATENCY: 223.8 cycles

DRAM Statistics

Channel 0 RQ ROW_BUFFER_HIT:        330
  ROW_BUFFER_MISS:    6940121
  AVG DBUS CONGESTED CYCLE: 11.46
Channel 0 WQ ROW_BUFFER_HIT:    1043008
  ROW_BUFFER_MISS:    1933868
  FULL:          0
Channel 0 REFRESHES ISSUED:      47081
SRRIP LLC eviction_rrpv_dist: 0=0 1=0 2=611286 3=7685780
SRRIP LLC avg_aging_rounds: 0.073675
