[VMEM] WARNING: physical memory size is smaller than virtual memory size.

*** ChampSim Multicore Out-of-Order Simulator ***
Warmup Instructions: 100000000
Simulation Instructions: 500000000
Number of CPUs: 1
Page size: 4096

Off-chip DRAM Size: 16 GiB Channels: 1 Width: 64-bit Data Rate: 3205 MT/s
Heartbeat CPU 0 instructions: 10000001 cycles: 2964886 heartbeat IPC: 3.373 cumulative IPC: 3.373 (Simulation time: 00 hr 01 min 27 sec)
Heartbeat CPU 0 instructions: 20000002 cycles: 5927879 heartbeat IPC: 3.375 cumulative IPC: 3.374 (Simulation time: 00 hr 03 min 07 sec)
Heartbeat CPU 0 instructions: 30000002 cycles: 8885867 heartbeat IPC: 3.381 cumulative IPC: 3.376 (Simulation time: 00 hr 04 min 49 sec)
Heartbeat CPU 0 instructions: 40000005 cycles: 11836562 heartbeat IPC: 3.389 cumulative IPC: 3.379 (Simulation time: 00 hr 06 min 33 sec)
Heartbeat CPU 0 instructions: 50000008 cycles: 14798277 heartbeat IPC: 3.376 cumulative IPC: 3.379 (Simulation time: 00 hr 08 min 15 sec)
Heartbeat CPU 0 instructions: 60000011 cycles: 17683405 heartbeat IPC: 3.466 cumulative IPC: 3.393 (Simulation time: 00 hr 09 min 55 sec)
Heartbeat CPU 0 instructions: 70000011 cycles: 20519774 heartbeat IPC: 3.526 cumulative IPC: 3.411 (Simulation time: 00 hr 11 min 34 sec)
Heartbeat CPU 0 instructions: 80000011 cycles: 23355099 heartbeat IPC: 3.527 cumulative IPC: 3.425 (Simulation time: 00 hr 13 min 13 sec)
Heartbeat CPU 0 instructions: 90000011 cycles: 26191938 heartbeat IPC: 3.525 cumulative IPC: 3.436 (Simulation time: 00 hr 14 min 53 sec)
Warmup finished CPU 0 instructions: 100000003 cycles: 29028586 cumulative IPC: 3.445 (Simulation time: 00 hr 16 min 31 sec)
Warmup complete CPU 0 instructions: 100000003 cycles: 29028586 cumulative IPC: 3.445 (Simulation time: 00 hr 16 min 31 sec)
Heartbeat CPU 0 instructions: 100000013 cycles: 29028588 heartbeat IPC: 3.525 cumulative IPC: 5 (Simulation time: 00 hr 16 min 31 sec)
Heartbeat CPU 0 instructions: 110000014 cycles: 36447255 heartbeat IPC: 1.348 cumulative IPC: 1.348 (Simulation time: 00 hr 19 min 16 sec)
Heartbeat CPU 0 instructions: 120000014 cycles: 43805429 heartbeat IPC: 1.359 cumulative IPC: 1.353 (Simulation time: 00 hr 22 min 00 sec)
Heartbeat CPU 0 instructions: 130000016 cycles: 51208412 heartbeat IPC: 1.351 cumulative IPC: 1.353 (Simulation time: 00 hr 24 min 42 sec)
Heartbeat CPU 0 instructions: 140000018 cycles: 58553286 heartbeat IPC: 1.361 cumulative IPC: 1.355 (Simulation time: 00 hr 27 min 21 sec)
Heartbeat CPU 0 instructions: 150000019 cycles: 65998032 heartbeat IPC: 1.343 cumulative IPC: 1.352 (Simulation time: 00 hr 30 min 01 sec)
Heartbeat CPU 0 instructions: 160000019 cycles: 73229111 heartbeat IPC: 1.383 cumulative IPC: 1.357 (Simulation time: 00 hr 32 min 40 sec)
Heartbeat CPU 0 instructions: 170000020 cycles: 80401547 heartbeat IPC: 1.394 cumulative IPC: 1.363 (Simulation time: 00 hr 35 min 19 sec)
Heartbeat CPU 0 instructions: 180000023 cycles: 87617044 heartbeat IPC: 1.386 cumulative IPC: 1.365 (Simulation time: 00 hr 37 min 59 sec)
Heartbeat CPU 0 instructions: 190000026 cycles: 94851609 heartbeat IPC: 1.382 cumulative IPC: 1.367 (Simulation time: 00 hr 40 min 39 sec)
Heartbeat CPU 0 instructions: 200000028 cycles: 102061285 heartbeat IPC: 1.387 cumulative IPC: 1.369 (Simulation time: 00 hr 43 min 20 sec)
Heartbeat CPU 0 instructions: 210000028 cycles: 109317187 heartbeat IPC: 1.378 cumulative IPC: 1.37 (Simulation time: 00 hr 46 min 02 sec)
Heartbeat CPU 0 instructions: 220000032 cycles: 116566218 heartbeat IPC: 1.379 cumulative IPC: 1.371 (Simulation time: 00 hr 48 min 43 sec)
Heartbeat CPU 0 instructions: 230000033 cycles: 123791018 heartbeat IPC: 1.384 cumulative IPC: 1.372 (Simulation time: 00 hr 51 min 25 sec)
Heartbeat CPU 0 instructions: 240000034 cycles: 131124318 heartbeat IPC: 1.364 cumulative IPC: 1.371 (Simulation time: 00 hr 54 min 08 sec)
Heartbeat CPU 0 instructions: 250000034 cycles: 138318059 heartbeat IPC: 1.39 cumulative IPC: 1.373 (Simulation time: 00 hr 56 min 48 sec)
Heartbeat CPU 0 instructions: 260000037 cycles: 145528846 heartbeat IPC: 1.387 cumulative IPC: 1.373 (Simulation time: 00 hr 59 min 29 sec)
Heartbeat CPU 0 instructions: 270000041 cycles: 152833081 heartbeat IPC: 1.369 cumulative IPC: 1.373 (Simulation time: 01 hr 02 min 10 sec)
Heartbeat CPU 0 instructions: 280000041 cycles: 160008707 heartbeat IPC: 1.394 cumulative IPC: 1.374 (Simulation time: 01 hr 04 min 50 sec)
Heartbeat CPU 0 instructions: 290000042 cycles: 167285115 heartbeat IPC: 1.374 cumulative IPC: 1.374 (Simulation time: 01 hr 07 min 33 sec)
Heartbeat CPU 0 instructions: 300000044 cycles: 174571958 heartbeat IPC: 1.372 cumulative IPC: 1.374 (Simulation time: 01 hr 10 min 15 sec)
Heartbeat CPU 0 instructions: 310000045 cycles: 181807979 heartbeat IPC: 1.382 cumulative IPC: 1.375 (Simulation time: 01 hr 12 min 56 sec)
Heartbeat CPU 0 instructions: 320000048 cycles: 189017235 heartbeat IPC: 1.387 cumulative IPC: 1.375 (Simulation time: 01 hr 15 min 35 sec)
Heartbeat CPU 0 instructions: 330000049 cycles: 196249588 heartbeat IPC: 1.383 cumulative IPC: 1.375 (Simulation time: 01 hr 18 min 16 sec)
Heartbeat CPU 0 instructions: 340000051 cycles: 203576918 heartbeat IPC: 1.365 cumulative IPC: 1.375 (Simulation time: 01 hr 20 min 57 sec)
Heartbeat CPU 0 instructions: 350000052 cycles: 210809751 heartbeat IPC: 1.383 cumulative IPC: 1.375 (Simulation time: 01 hr 23 min 39 sec)
Heartbeat CPU 0 instructions: 360000056 cycles: 218028551 heartbeat IPC: 1.385 cumulative IPC: 1.376 (Simulation time: 01 hr 26 min 35 sec)
Heartbeat CPU 0 instructions: 370000056 cycles: 225232061 heartbeat IPC: 1.388 cumulative IPC: 1.376 (Simulation time: 01 hr 29 min 09 sec)
Heartbeat CPU 0 instructions: 380000057 cycles: 232403769 heartbeat IPC: 1.394 cumulative IPC: 1.377 (Simulation time: 01 hr 31 min 58 sec)
Heartbeat CPU 0 instructions: 390000057 cycles: 239647725 heartbeat IPC: 1.38 cumulative IPC: 1.377 (Simulation time: 01 hr 34 min 53 sec)
Heartbeat CPU 0 instructions: 400000057 cycles: 246864139 heartbeat IPC: 1.386 cumulative IPC: 1.377 (Simulation time: 01 hr 37 min 59 sec)
Heartbeat CPU 0 instructions: 410000059 cycles: 254087097 heartbeat IPC: 1.384 cumulative IPC: 1.377 (Simulation time: 01 hr 40 min 58 sec)
Heartbeat CPU 0 instructions: 420000060 cycles: 261317716 heartbeat IPC: 1.383 cumulative IPC: 1.378 (Simulation time: 01 hr 43 min 45 sec)
Heartbeat CPU 0 instructions: 430000062 cycles: 268669211 heartbeat IPC: 1.36 cumulative IPC: 1.377 (Simulation time: 01 hr 46 min 32 sec)
Heartbeat CPU 0 instructions: 440000063 cycles: 275937046 heartbeat IPC: 1.376 cumulative IPC: 1.377 (Simulation time: 01 hr 49 min 16 sec)
Heartbeat CPU 0 instructions: 450000065 cycles: 283096903 heartbeat IPC: 1.397 cumulative IPC: 1.378 (Simulation time: 01 hr 52 min 00 sec)
Heartbeat CPU 0 instructions: 460000066 cycles: 290338978 heartbeat IPC: 1.381 cumulative IPC: 1.378 (Simulation time: 01 hr 54 min 46 sec)
Heartbeat CPU 0 instructions: 470000070 cycles: 297521280 heartbeat IPC: 1.392 cumulative IPC: 1.378 (Simulation time: 01 hr 57 min 30 sec)
Heartbeat CPU 0 instructions: 480000074 cycles: 304758092 heartbeat IPC: 1.382 cumulative IPC: 1.378 (Simulation time: 02 hr 00 min 16 sec)
Heartbeat CPU 0 instructions: 490000077 cycles: 311993716 heartbeat IPC: 1.382 cumulative IPC: 1.378 (Simulation time: 02 hr 03 min 02 sec)
Heartbeat CPU 0 instructions: 500000080 cycles: 319279824 heartbeat IPC: 1.372 cumulative IPC: 1.378 (Simulation time: 02 hr 05 min 49 sec)
Heartbeat CPU 0 instructions: 510000082 cycles: 326484542 heartbeat IPC: 1.388 cumulative IPC: 1.378 (Simulation time: 02 hr 08 min 35 sec)
Heartbeat CPU 0 instructions: 520000083 cycles: 333836122 heartbeat IPC: 1.36 cumulative IPC: 1.378 (Simulation time: 02 hr 11 min 22 sec)
Heartbeat CPU 0 instructions: 530000085 cycles: 341052948 heartbeat IPC: 1.386 cumulative IPC: 1.378 (Simulation time: 02 hr 14 min 13 sec)
Heartbeat CPU 0 instructions: 540000087 cycles: 348270921 heartbeat IPC: 1.385 cumulative IPC: 1.378 (Simulation time: 02 hr 17 min 05 sec)
Heartbeat CPU 0 instructions: 550000089 cycles: 355551535 heartbeat IPC: 1.374 cumulative IPC: 1.378 (Simulation time: 02 hr 19 min 52 sec)
Heartbeat CPU 0 instructions: 560000091 cycles: 362765861 heartbeat IPC: 1.386 cumulative IPC: 1.378 (Simulation time: 02 hr 22 min 38 sec)
Heartbeat CPU 0 instructions: 570000094 cycles: 369989097 heartbeat IPC: 1.384 cumulative IPC: 1.378 (Simulation time: 02 hr 25 min 23 sec)
Heartbeat CPU 0 instructions: 580000096 cycles: 377261327 heartbeat IPC: 1.375 cumulative IPC: 1.378 (Simulation time: 02 hr 28 min 10 sec)
Heartbeat CPU 0 instructions: 590000096 cycles: 384481397 heartbeat IPC: 1.385 cumulative IPC: 1.379 (Simulation time: 02 hr 30 min 56 sec)
Simulation finished CPU 0 instructions: 500000001 cycles: 362685031 cumulative IPC: 1.379 (Simulation time: 02 hr 33 min 41 sec)
Simulation complete CPU 0 instructions: 500000001 cycles: 362685031 cumulative IPC: 1.379 (Simulation time: 02 hr 33 min 41 sec)

ChampSim completed all CPUs

=== Simulation ===
CPU 0 runs traces/T3.xz

Region of Interest Statistics

CPU 0 cumulative IPC: 1.379 instructions: 500000001 cycles: 362685031
CPU 0 Branch Prediction Accuracy: 99.85% MPKI: 0.001804 Average ROB Occupancy at Mispredict: 277
Branch type MPKI
BRANCH_DIRECT_JUMP: 2e-06
BRANCH_INDIRECT: 1e-05
BRANCH_CONDITIONAL: 0.001792
BRANCH_DIRECT_CALL: 0
BRANCH_INDIRECT_CALL: 0
BRANCH_RETURN: 0

cpu0->cpu0_STLB TOTAL        ACCESS:   37706048 HIT:   37645180 MISS:      60868 MSHR_MERGE:          0
cpu0->cpu0_STLB LOAD         ACCESS:   37706048 HIT:   37645180 MISS:      60868 MSHR_MERGE:          0
cpu0->cpu0_STLB RFO          ACCESS:          0 HIT:          0 MISS:          0 MSHR_MERGE:          0
cpu0->cpu0_STLB PREFETCH     ACCESS:          0 HIT:          0 MISS:          0 MSHR_MERGE:          0
cpu0->cpu0_STLB WRITE        ACCESS:          0 HIT:          0 MISS:          0 MSHR_MERGE:          0
cpu0->cpu0_STLB TRANSLATION  ACCESS:          0 HIT:          0 MISS:          0 MSHR_MERGE:          0
cpu0->cpu0_STLB PREFETCH REQUESTED:          0 ISSUED:          0 USEFUL:          0 USELESS:          0
cpu0->cpu0_STLB AVERAGE MISS LATENCY: 543.6 cycles
cpu0->cpu0_L2C TOTAL        ACCESS:   63098326 HIT:   56523968 MISS:    6574358 MSHR_MERGE:          0
cpu0->cpu0_L2C LOAD         ACCESS:   54417406 HIT:   48189728 MISS:    6227678 MSHR_MERGE:          0
cpu0->cpu0_L2C RFO          ACCESS:    4064498 HIT:    3856214 MISS:     208284 MSHR_MERGE:          0
cpu0->cpu0_L2C PREFETCH     ACCESS:          0 HIT:          0 MISS:          0 MSHR_MERGE:          0
cpu0->cpu0_L2C WRITE        ACCESS:    4461385 HIT:    4461375 MISS:         10 MSHR_MERGE:          0
cpu0->cpu0_L2C TRANSLATION  ACCESS:     155037 HIT:      16651 MISS:     138386 MSHR_MERGE:          0
cpu0->cpu0_L2C PREFETCH REQUESTED:          0 ISSUED:          0 USEFUL:          0 USELESS:          0
cpu0->cpu0_L2C AVERAGE MISS LATENCY: 150.4 cycles
cpu0->cpu0_L1I TOTAL        ACCESS:   97192901 HIT:   97192901 MISS:          0 MSHR_MERGE:          0
cpu0->cpu0_L1I LOAD         ACCESS:   97192901 HIT:   97192901 MISS:          0 MSHR_MERGE:          0
cpu0->cpu0_L1I RFO          ACCESS:          0 HIT:          0 MISS:          0 MSHR_MERGE:          0
cpu0->cpu0_L1I PREFETCH     ACCESS:          0 HIT:          0 MISS:          0 MSHR_MERGE:          0
cpu0->cpu0_L1I WRITE        ACCESS:          0 HIT:          0 MISS:          0 MSHR_MERGE:          0
cpu0->cpu0_L1I TRANSLATION  ACCESS:          0 HIT:          0 MISS:          0 MSHR_MERGE:          0
cpu0->cpu0_L1I PREFETCH REQUESTED:          0 ISSUED:          0 USEFUL:          0 USELESS:          0
cpu0->cpu0_L1I AVERAGE MISS LATENCY: - cycles
cpu0->cpu0_L1D TOTAL        ACCESS:  153928003 HIT:   87105637 MISS:   66822366 MSHR_MERGE:    8051214
cpu0->cpu0_L1D LOAD         ACCESS:   96646398 HIT:   34467628 MISS:   62178770 MSHR_MERGE:    7629681
cpu0->cpu0_L1D RFO          ACCESS:          0 HIT:          0 MISS:          0 MSHR_MERGE:          0
cpu0->cpu0_L1D PREFETCH     ACCESS:          0 HIT:          0 MISS:          0 MSHR_MERGE:          0
cpu0->cpu0_L1D WRITE        ACCESS:   57125862 HIT:   52637492 MISS:    4488370 MSHR_MERGE:     421344
cpu0->cpu0_L1D TRANSLATION  ACCESS:     155743 HIT:        517 MISS:     155226 MSHR_MERGE:        189
cpu0->cpu0_L1D PREFETCH REQUESTED:          0 ISSUED:          0 USEFUL:          0 USELESS:          0
cpu0->cpu0_L1D AVERAGE MISS LATENCY: 25.54 cycles
cpu0->cpu0_ITLB TOTAL        ACCESS:   78257538 HIT:   78257538 MISS:          0 MSHR_MERGE:          0
cpu0->cpu0_ITLB LOAD         ACCESS:   78257538 HIT:   78257538 MISS:          0 MSHR_MERGE:          0
cpu0->cpu0_ITLB RFO          ACCESS:          0 HIT:          0 MISS:          0 MSHR_MERGE:          0
cpu0->cpu0_ITLB PREFETCH     ACCESS:          0 HIT:          0 MISS:          0 MSHR_MERGE:          0
cpu0->cpu0_ITLB WRITE        ACCESS:          0 HIT:          0 MISS:          0 MSHR_MERGE:          0
cpu0->cpu0_ITLB TRANSLATION  ACCESS:          0 HIT:          0 MISS:          0 MSHR_MERGE:          0
cpu0->cpu0_ITLB PREFETCH REQUESTED:          0 ISSUED:          0 USEFUL:          0 USELESS:          0
cpu0->cpu0_ITLB AVERAGE MISS LATENCY: - cycles
cpu0->cpu0_DTLB TOTAL        ACCESS:  142264156 HIT:   91533518 MISS:   50730638 MSHR_MERGE:   13024590
cpu0->cpu0_DTLB LOAD         ACCESS:  142264156 HIT:   91533518 MISS:   50730638 MSHR_MERGE:   13024590
cpu0->cpu0_DTLB RFO          ACCESS:          0 HIT:          0 MISS:          0 MSHR_MERGE:          0
cpu0->cpu0_DTLB PREFETCH     ACCESS:          0 HIT:          0 MISS:          0 MSHR_MERGE:          0
cpu0->cpu0_DTLB WRITE        ACCESS:          0 HIT:          0 MISS:          0 MSHR_MERGE:          0
cpu0->cpu0_DTLB TRANSLATION  ACCESS:          0 HIT:          0 MISS:          0 MSHR_MERGE:          0
cpu0->cpu0_DTLB PREFETCH REQUESTED:          0 ISSUED:          0 USEFUL:          0 USELESS:          0
cpu0->cpu0_DTLB AVERAGE MISS LATENCY: 5.921 cycles
cpu0->LLC TOTAL        ACCESS:    7202596 HIT:    3252868 MISS:    3949728 MSHR_MERGE:          0
cpu0->LLC LOAD         ACCESS:    6227676 HIT:    2371623 MISS:    3856053 MSHR_MERGE:          0
cpu0->LLC RFO          ACCESS:     206685 HIT:     206682 MISS:          3 MSHR_MERGE:          0
cpu0->LLC PREFETCH     ACCESS:          0 HIT:          0 MISS:          0 MSHR_MERGE:          0
cpu0->LLC WRITE        ACCESS:     629849 HIT:     629543 MISS:        306 MSHR_MERGE:          0
cpu0->LLC TRANSLATION  ACCESS:     138386 HIT:      45020 MISS:      93366 MSHR_MERGE:          0
cpu0->LLC PREFETCH REQUESTED:          0 ISSUED:          0 USEFUL:          0 USELESS:          0
cpu0->LLC AVERAGE MISS LATENCY: 224.4 cycles

DRAM Statistics

Channel 0 RQ ROW_BUFFER_HIT:        438
  ROW_BUFFER_MISS:    3948981
  AVG DBUS CONGESTED CYCLE: 5.227
Channel 0 WQ ROW_BUFFER_HIT:      56098
  ROW_BUFFER_MISS:     422359
  FULL:          0
Channel 0 REFRESHES ISSUED:      30223
SRRIP LLC eviction_rrpv_dist: 0=0 1=30 2=397748 3=4049609
SRRIP LLC avg_aging_rounds: 0.0894476
