[VMEM] WARNING: physical memory size is smaller than virtual memory size.

*** ChampSim Multicore Out-of-Order Simulator ***
Warmup Instructions: 100000000
Simulation Instructions: 500000000
Number of CPUs: 1
Page size: 4096

Off-chip DRAM Size: 16 GiB Channels: 1 Width: 64-bit Data Rate: 3205 MT/s
Heartbeat CPU 0 instructions: 10000000 cycles: 2973839 heartbeat IPC: 3.363 cumulative IPC: 3.363 (Simulation time: 00 hr 01 min 12 sec)
Heartbeat CPU 0 instructions: 20000000 cycles: 5933758 heartbeat IPC: 3.378 cumulative IPC: 3.371 (Simulation time: 00 hr 02 min 36 sec)
Heartbeat CPU 0 instructions: 30000002 cycles: 8894109 heartbeat IPC: 3.378 cumulative IPC: 3.373 (Simulation time: 00 hr 03 min 59 sec)
Heartbeat CPU 0 instructions: 40000004 cycles: 11853265 heartbeat IPC: 3.379 cumulative IPC: 3.375 (Simulation time: 00 hr 05 min 27 sec)
Heartbeat CPU 0 instructions: 50000004 cycles: 14813664 heartbeat IPC: 3.378 cumulative IPC: 3.375 (Simulation time: 00 hr 06 min 55 sec)
Heartbeat CPU 0 instructions: 60000007 cycles: 17773021 heartbeat IPC: 3.379 cumulative IPC: 3.376 (Simulation time: 00 hr 08 min 22 sec)
Heartbeat CPU 0 instructions: 70000007 cycles: 20732378 heartbeat IPC: 3.379 cumulative IPC: 3.376 (Simulation time: 00 hr 09 min 44 sec)
Heartbeat CPU 0 instructions: 80000010 cycles: 23693090 heartbeat IPC: 3.378 cumulative IPC: 3.377 (Simulation time: 00 hr 11 min 07 sec)
Heartbeat CPU 0 instructions: 90000012 cycles: 26652619 heartbeat IPC: 3.379 cumulative IPC: 3.377 (Simulation time: 00 hr 12 min 29 sec)
Warmup finished CPU 0 instructions: 100000000 cycles: 29611937 cumulative IPC: 3.377 (Simulation time: 00 hr 13 min 53 sec)
Warmup complete CPU 0 instructions: 100000000 cycles: 29611937 cumulative IPC: 3.377 (Simulation time: 00 hr 13 min 53 sec)
Heartbeat CPU 0 instructions: 100000015 cycles: 29611940 heartbeat IPC: 3.379 cumulative IPC: 5 (Simulation time: 00 hr 13 min 53 sec)
Heartbeat CPU 0 instructions: 110000016 cycles: 54898581 heartbeat IPC: 0.3955 cumulative IPC: 0.3955 (Simulation time: 00 hr 21 min 10 sec)
Heartbeat CPU 0 instructions: 120000020 cycles: 80233411 heartbeat IPC: 0.3947 cumulative IPC: 0.3951 (Simulation time: 00 hr 28 min 17 sec)
Heartbeat CPU 0 instructions: 130000020 cycles: 105515435 heartbeat IPC: 0.3955 cumulative IPC: 0.3952 (Simulation time: 00 hr 35 min 20 sec)
Heartbeat CPU 0 instructions: 140000024 cycles: 130797388 heartbeat IPC: 0.3955 cumulative IPC: 0.3953 (Simulation time: 00 hr 42 min 29 sec)
Heartbeat CPU 0 instructions: 150000024 cycles: 156130822 heartbeat IPC: 0.3947 cumulative IPC: 0.3952 (Simulation time: 00 hr 49 min 43 sec)
Heartbeat CPU 0 instructions: 160000028 cycles: 181421627 heartbeat IPC: 0.3954 cumulative IPC: 0.3952 (Simulation time: 00 hr 56 min 55 sec)
Heartbeat CPU 0 instructions: 170000028 cycles: 206714357 heartbeat IPC: 0.3954 cumulative IPC: 0.3953 (Simulation time: 01 hr 04 min 05 sec)
Heartbeat CPU 0 instructions: 180000031 cycles: 232091021 heartbeat IPC: 0.3941 cumulative IPC: 0.3951 (Simulation time: 01 hr 11 min 16 sec)
Heartbeat CPU 0 instructions: 190000034 cycles: 257422508 heartbeat IPC: 0.3948 cumulative IPC: 0.3951 (Simulation time: 01 hr 18 min 27 sec)
Heartbeat CPU 0 instructions: 200000035 cycles: 282761245 heartbeat IPC: 0.3947 cumulative IPC: 0.395 (Simulation time: 01 hr 25 min 36 sec)
Heartbeat CPU 0 instructions: 210000038 cycles: 308047970 heartbeat IPC: 0.3955 cumulative IPC: 0.3951 (Simulation time: 01 hr 32 min 57 sec)
Heartbeat CPU 0 instructions: 220000038 cycles: 333358685 heartbeat IPC: 0.3951 cumulative IPC: 0.3951 (Simulation time: 01 hr 40 min 57 sec)
Heartbeat CPU 0 instructions: 230000038 cycles: 358690229 heartbeat IPC: 0.3948 cumulative IPC: 0.395 (Simulation time: 01 hr 48 min 25 sec)
Heartbeat CPU 0 instructions: 240000042 cycles: 384000019 heartbeat IPC: 0.3951 cumulative IPC: 0.395 (Simulation time: 01 hr 55 min 49 sec)
Heartbeat CPU 0 instructions: 250000042 cycles: 409291514 heartbeat IPC: 0.3954 cumulative IPC: 0.3951 (Simulation time: 02 hr 03 min 14 sec)
Heartbeat CPU 0 instructions: 260000046 cycles: 434596149 heartbeat IPC: 0.3952 cumulative IPC: 0.3951 (Simulation time: 02 hr 10 min 40 sec)
Heartbeat CPU 0 instructions: 270000046 cycles: 457365125 heartbeat IPC: 0.4392 cumulative IPC: 0.3974 (Simulation time: 02 hr 17 min 32 sec)
Heartbeat CPU 0 instructions: 280000047 cycles: 478454854 heartbeat IPC: 0.4742 cumulative IPC: 0.401 (Simulation time: 02 hr 23 min 45 sec)
Heartbeat CPU 0 instructions: 290000048 cycles: 503776042 heartbeat IPC: 0.3949 cumulative IPC: 0.4007 (Simulation time: 02 hr 31 min 14 sec)
Heartbeat CPU 0 instructions: 300000052 cycles: 529159667 heartbeat IPC: 0.394 cumulative IPC: 0.4004 (Simulation time: 02 hr 38 min 28 sec)
Heartbeat CPU 0 instructions: 310000052 cycles: 554509014 heartbeat IPC: 0.3945 cumulative IPC: 0.4001 (Simulation time: 02 hr 45 min 32 sec)
Heartbeat CPU 0 instructions: 320000056 cycles: 579871029 heartbeat IPC: 0.3943 cumulative IPC: 0.3998 (Simulation time: 02 hr 52 min 54 sec)
Heartbeat CPU 0 instructions: 330000056 cycles: 605216051 heartbeat IPC: 0.3946 cumulative IPC: 0.3996 (Simulation time: 03 hr 00 min 02 sec)
Heartbeat CPU 0 instructions: 340000060 cycles: 630557804 heartbeat IPC: 0.3946 cumulative IPC: 0.3994 (Simulation time: 03 hr 06 min 44 sec)
Heartbeat CPU 0 instructions: 350000064 cycles: 655923949 heartbeat IPC: 0.3942 cumulative IPC: 0.3992 (Simulation time: 03 hr 12 min 53 sec)
Heartbeat CPU 0 instructions: 360000067 cycles: 681287782 heartbeat IPC: 0.3943 cumulative IPC: 0.399 (Simulation time: 03 hr 19 min 03 sec)
Heartbeat CPU 0 instructions: 370000068 cycles: 706634679 heartbeat IPC: 0.3945 cumulative IPC: 0.3988 (Simulation time: 03 hr 25 min 26 sec)
Heartbeat CPU 0 instructions: 380000070 cycles: 731980551 heartbeat IPC: 0.3945 cumulative IPC: 0.3987 (Simulation time: 03 hr 31 min 31 sec)
Heartbeat CPU 0 instructions: 390000072 cycles: 757384511 heartbeat IPC: 0.3936 cumulative IPC: 0.3985 (Simulation time: 03 hr 38 min 07 sec)
Heartbeat CPU 0 instructions: 400000075 cycles: 782775342 heartbeat IPC: 0.3938 cumulative IPC: 0.3983 (Simulation time: 03 hr 44 min 28 sec)
Heartbeat CPU 0 instructions: 410000075 cycles: 808154502 heartbeat IPC: 0.394 cumulative IPC: 0.3982 (Simulation time: 03 hr 50 min 31 sec)
Heartbeat CPU 0 instructions: 420000079 cycles: 833515814 heartbeat IPC: 0.3943 cumulative IPC: 0.3981 (Simulation time: 03 hr 56 min 57 sec)
Heartbeat CPU 0 instructions: 430000079 cycles: 858883792 heartbeat IPC: 0.3942 cumulative IPC: 0.3979 (Simulation time: 04 hr 02 min 53 sec)
Heartbeat CPU 0 instructions: 440000083 cycles: 884242941 heartbeat IPC: 0.3943 cumulative IPC: 0.3978 (Simulation time: 04 hr 08 min 58 sec)
Heartbeat CPU 0 instructions: 450000083 cycles: 909631645 heartbeat IPC: 0.3939 cumulative IPC: 0.3977 (Simulation time: 04 hr 14 min 52 sec)
Heartbeat CPU 0 instructions: 460000085 cycles: 935019921 heartbeat IPC: 0.3939 cumulative IPC: 0.3976 (Simulation time: 04 hr 20 min 13 sec)
Heartbeat CPU 0 instructions: 470000086 cycles: 960393238 heartbeat IPC: 0.3941 cumulative IPC: 0.3975 (Simulation time: 04 hr 25 min 28 sec)
Heartbeat CPU 0 instructions: 480000089 cycles: 985756528 heartbeat IPC: 0.3943 cumulative IPC: 0.3974 (Simulation time: 04 hr 30 min 38 sec)
Heartbeat CPU 0 instructions: 490000090 cycles: 1011103197 heartbeat IPC: 0.3945 cumulative IPC: 0.3974 (Simulation time: 04 hr 35 min 52 sec)
Heartbeat CPU 0 instructions: 500000094 cycles: 1036425435 heartbeat IPC: 0.3949 cumulative IPC: 0.3973 (Simulation time: 04 hr 41 min 04 sec)
Heartbeat CPU 0 instructions: 510000098 cycles: 1061804489 heartbeat IPC: 0.394 cumulative IPC: 0.3972 (Simulation time: 04 hr 46 min 18 sec)
Heartbeat CPU 0 instructions: 520000102 cycles: 1087162234 heartbeat IPC: 0.3944 cumulative IPC: 0.3971 (Simulation time: 04 hr 51 min 41 sec)
Heartbeat CPU 0 instructions: 530000102 cycles: 1112553635 heartbeat IPC: 0.3938 cumulative IPC: 0.3971 (Simulation time: 04 hr 58 min 01 sec)
Heartbeat CPU 0 instructions: 540000106 cycles: 1137958164 heartbeat IPC: 0.3936 cumulative IPC: 0.397 (Simulation time: 05 hr 03 min 18 sec)
Heartbeat CPU 0 instructions: 550000106 cycles: 1163326324 heartbeat IPC: 0.3942 cumulative IPC: 0.3969 (Simulation time: 05 hr 08 min 35 sec)
Heartbeat CPU 0 instructions: 560000108 cycles: 1188709655 heartbeat IPC: 0.394 cumulative IPC: 0.3969 (Simulation time: 05 hr 13 min 50 sec)
Heartbeat CPU 0 instructions: 570000109 cycles: 1214157080 heartbeat IPC: 0.393 cumulative IPC: 0.3968 (Simulation time: 05 hr 19 min 17 sec)
Heartbeat CPU 0 instructions: 580000112 cycles: 1239518181 heartbeat IPC: 0.3943 cumulative IPC: 0.3967 (Simulation time: 05 hr 24 min 36 sec)
Heartbeat CPU 0 instructions: 590000113 cycles: 1264885310 heartbeat IPC: 0.3942 cumulative IPC: 0.3967 (Simulation time: 05 hr 29 min 52 sec)
Simulation finished CPU 0 instructions: 500000003 cycles: 1260661948 cumulative IPC: 0.3966 (Simulation time: 05 hr 34 min 34 sec)
Simulation complete CPU 0 instructions: 500000003 cycles: 1260661948 cumulative IPC: 0.3966 (Simulation time: 05 hr 34 min 34 sec)

ChampSim completed all CPUs

=== Simulation ===
CPU 0 runs traces/T4.xz

Region of Interest Statistics

CPU 0 cumulative IPC: 0.3966 instructions: 500000003 cycles: 1260661948
CPU 0 Branch Prediction Accuracy: 99.63% MPKI: 0.06786 Average ROB Occupancy at Mispredict: 76.51
Branch type MPKI
BRANCH_DIRECT_JUMP: 0.000178
BRANCH_INDIRECT: 0
BRANCH_CONDITIONAL: 0.05161
BRANCH_DIRECT_CALL: 3.2e-05
BRANCH_INDIRECT_CALL: 0
BRANCH_RETURN: 0.01604

cpu0->cpu0_STLB TOTAL        ACCESS:     116434 HIT:      48248 MISS:      68186 MSHR_MERGE:          0
cpu0->cpu0_STLB LOAD         ACCESS:     116434 HIT:      48248 MISS:      68186 MSHR_MERGE:          0
cpu0->cpu0_STLB RFO          ACCESS:          0 HIT:          0 MISS:          0 MSHR_MERGE:          0
cpu0->cpu0_STLB PREFETCH     ACCESS:          0 HIT:          0 MISS:          0 MSHR_MERGE:          0
cpu0->cpu0_STLB WRITE        ACCESS:          0 HIT:          0 MISS:          0 MSHR_MERGE:          0
cpu0->cpu0_STLB TRANSLATION  ACCESS:          0 HIT:          0 MISS:          0 MSHR_MERGE:          0
cpu0->cpu0_STLB PREFETCH REQUESTED:          0 ISSUED:          0 USEFUL:          0 USELESS:          0
cpu0->cpu0_STLB AVERAGE MISS LATENCY: 664.3 cycles
cpu0->cpu0_L2C TOTAL        ACCESS:   11017709 HIT:    6187682 MISS:    4830027 MSHR_MERGE:          0
cpu0->cpu0_L2C LOAD         ACCESS:    6564966 HIT:    1812637 MISS:    4752329 MSHR_MERGE:          0
cpu0->cpu0_L2C RFO          ACCESS:       9630 HIT:       8990 MISS:        640 MSHR_MERGE:          0
cpu0->cpu0_L2C PREFETCH     ACCESS:          0 HIT:          0 MISS:          0 MSHR_MERGE:          0
cpu0->cpu0_L2C WRITE        ACCESS:    4364158 HIT:    4364158 MISS:          0 MSHR_MERGE:          0
cpu0->cpu0_L2C TRANSLATION  ACCESS:      78955 HIT:       1897 MISS:      77058 MSHR_MERGE:          0
cpu0->cpu0_L2C PREFETCH REQUESTED:          0 ISSUED:          0 USEFUL:          0 USELESS:          0
cpu0->cpu0_L2C AVERAGE MISS LATENCY: 218.2 cycles
cpu0->cpu0_L1I TOTAL        ACCESS:   93119942 HIT:   93119532 MISS:        410 MSHR_MERGE:        133
cpu0->cpu0_L1I LOAD         ACCESS:   93119942 HIT:   93119532 MISS:        410 MSHR_MERGE:        133
cpu0->cpu0_L1I RFO          ACCESS:          0 HIT:          0 MISS:          0 MSHR_MERGE:          0
cpu0->cpu0_L1I PREFETCH     ACCESS:          0 HIT:          0 MISS:          0 MSHR_MERGE:          0
cpu0->cpu0_L1I WRITE        ACCESS:          0 HIT:          0 MISS:          0 MSHR_MERGE:          0
cpu0->cpu0_L1I TRANSLATION  ACCESS:          0 HIT:          0 MISS:          0 MSHR_MERGE:          0
cpu0->cpu0_L1I PREFETCH REQUESTED:          0 ISSUED:          0 USEFUL:          0 USELESS:          0
cpu0->cpu0_L1I AVERAGE MISS LATENCY: 226 cycles
cpu0->cpu0_L1D TOTAL        ACCESS:  158353539 HIT:  130256275 MISS:   28097264 MSHR_MERGE:   21443990
cpu0->cpu0_L1D LOAD         ACCESS:  123012593 HIT:   95024867 MISS:   27987726 MSHR_MERGE:   21423037
cpu0->cpu0_L1D RFO          ACCESS:          0 HIT:          0 MISS:          0 MSHR_MERGE:          0
cpu0->cpu0_L1D PREFETCH     ACCESS:          0 HIT:          0 MISS:          0 MSHR_MERGE:          0
cpu0->cpu0_L1D WRITE        ACCESS:   35204338 HIT:   35173756 MISS:      30582 MSHR_MERGE:      20952
cpu0->cpu0_L1D TRANSLATION  ACCESS:     136608 HIT:      57652 MISS:      78956 MSHR_MERGE:          1
cpu0->cpu0_L1D PREFETCH REQUESTED:          0 ISSUED:          0 USEFUL:          0 USELESS:          0
cpu0->cpu0_L1D AVERAGE MISS LATENCY: 167.1 cycles
cpu0->cpu0_ITLB TOTAL        ACCESS:   75709583 HIT:   75709558 MISS:         25 MSHR_MERGE:         14
cpu0->cpu0_ITLB LOAD         ACCESS:   75709583 HIT:   75709558 MISS:         25 MSHR_MERGE:         14
cpu0->cpu0_ITLB RFO          ACCESS:          0 HIT:          0 MISS:          0 MSHR_MERGE:          0
cpu0->cpu0_ITLB PREFETCH     ACCESS:          0 HIT:          0 MISS:          0 MSHR_MERGE:          0
cpu0->cpu0_ITLB WRITE        ACCESS:          0 HIT:          0 MISS:          0 MSHR_MERGE:          0
cpu0->cpu0_ITLB TRANSLATION  ACCESS:          0 HIT:          0 MISS:          0 MSHR_MERGE:          0
cpu0->cpu0_ITLB PREFETCH REQUESTED:          0 ISSUED:          0 USEFUL:          0 USELESS:          0
cpu0->cpu0_ITLB AVERAGE MISS LATENCY: 810 cycles
cpu0->cpu0_DTLB TOTAL        ACCESS:  148305670 HIT:  147867289 MISS:     438381 MSHR_MERGE:     321958
cpu0->cpu0_DTLB LOAD         ACCESS:  148305670 HIT:  147867289 MISS:     438381 MSHR_MERGE:     321958
cpu0->cpu0_DTLB RFO          ACCESS:          0 HIT:          0 MISS:          0 MSHR_MERGE:          0
cpu0->cpu0_DTLB PREFETCH     ACCESS:          0 HIT:          0 MISS:          0 MSHR_MERGE:          0
cpu0->cpu0_DTLB WRITE        ACCESS:          0 HIT:          0 MISS:          0 MSHR_MERGE:          0
cpu0->cpu0_DTLB TRANSLATION  ACCESS:          0 HIT:          0 MISS:          0 MSHR_MERGE:          0
cpu0->cpu0_DTLB PREFETCH REQUESTED:          0 ISSUED:          0 USEFUL:          0 USELESS:          0
cpu0->cpu0_DTLB AVERAGE MISS LATENCY: 394.6 cycles
cpu0->LLC TOTAL        ACCESS:    9185034 HIT:    4732871 MISS:    4452163 MSHR_MERGE:          0
cpu0->LLC LOAD         ACCESS:    4752329 HIT:     377860 MISS:    4374469 MSHR_MERGE:          0
cpu0->LLC RFO          ACCESS:        640 HIT:        616 MISS:         24 MSHR_MERGE:          0
cpu0->LLC PREFETCH     ACCESS:          0 HIT:          0 MISS:          0 MSHR_MERGE:          0
cpu0->LLC WRITE        ACCESS:    4355007 HIT:    4354384 MISS:        623 MSHR_MERGE:          0
cpu0->LLC TRANSLATION  ACCESS:      77058 HIT:         11 MISS:      77047 MSHR_MERGE:          0
cpu0->LLC PREFETCH REQUESTED:          0 ISSUED:          0 USEFUL:          0 USELESS:          0
cpu0->LLC AVERAGE MISS LATENCY: 219.4 cycles

DRAM Statistics

Channel 0 RQ ROW_BUFFER_HIT:      26990
  ROW_BUFFER_MISS:    4424546
  AVG DBUS CONGESTED CYCLE: 9.864
Channel 0 WQ ROW_BUFFER_HIT:    1766580
  ROW_BUFFER_MISS:    2587244
  FULL:          0
Channel 0 REFRESHES ISSUED:     105055
SRRIP LLC eviction_rrpv_dist: 0=0 1=0 2=352342 3=4966347
SRRIP LLC avg_aging_rounds: 0.066246
