[VMEM] WARNING: physical memory size is smaller than virtual memory size.
WARNING: option --warmup_instructions is deprecated. Use --warmup-instructions instead.
WARNING: option --simulation_instructions is deprecated. Use --simulation-instructions instead.

*** ChampSim Multicore Out-of-Order Simulator ***
Warmup Instructions: 20000000
Simulation Instructions: 50000000
Number of CPUs: 1
Page size: 8192

Off-chip DRAM Size: 16 GiB Channels: 1 Width: 64-bit Data Rate: 3205 MT/s
Heartbeat CPU 0 instructions: 10000000 cycles: 8239515 heartbeat IPC: 1.214 cumulative IPC: 1.214 (Simulation time: 00 hr 01 min 20 sec)
Heartbeat CPU 0 instructions: 20000000 cycles: 15266791 heartbeat IPC: 1.423 cumulative IPC: 1.31 (Simulation time: 00 hr 02 min 34 sec)
Warmup finished CPU 0 instructions: 20000000 cycles: 15266791 cumulative IPC: 1.31 (Simulation time: 00 hr 02 min 34 sec)
Warmup complete CPU 0 instructions: 20000000 cycles: 15266791 cumulative IPC: 1.31 (Simulation time: 00 hr 02 min 34 sec)
Heartbeat CPU 0 instructions: 30000002 cycles: 37175864 heartbeat IPC: 0.4564 cumulative IPC: 0.4564 (Simulation time: 00 hr 04 min 53 sec)
Heartbeat CPU 0 instructions: 40000004 cycles: 59153249 heartbeat IPC: 0.455 cumulative IPC: 0.4557 (Simulation time: 00 hr 07 min 11 sec)
Heartbeat CPU 0 instructions: 50000004 cycles: 80965833 heartbeat IPC: 0.4585 cumulative IPC: 0.4566 (Simulation time: 00 hr 09 min 28 sec)
Heartbeat CPU 0 instructions: 60000007 cycles: 101702656 heartbeat IPC: 0.4822 cumulative IPC: 0.4628 (Simulation time: 00 hr 11 min 40 sec)
Simulation finished CPU 0 instructions: 50000001 cycles: 106626833 cumulative IPC: 0.4689 (Simulation time: 00 hr 13 min 50 sec)
Simulation complete CPU 0 instructions: 50000001 cycles: 106626833 cumulative IPC: 0.4689 (Simulation time: 00 hr 13 min 50 sec)

ChampSim completed all CPUs

=== Simulation ===
CPU 0 runs traces/620.omnetpp_s-874B.champsimtrace.xz

Region of Interest Statistics

CPU 0 cumulative IPC: 0.4689 instructions: 50000001 cycles: 106626833
CPU 0 Branch Prediction Accuracy: 96.16% MPKI: 7.99 Average ROB Occupancy at Mispredict: 58.93
Branch type MPKI
BRANCH_DIRECT_JUMP: 0.9384
BRANCH_INDIRECT: 0.1208
BRANCH_CONDITIONAL: 5.805
BRANCH_DIRECT_CALL: 0.00236
BRANCH_INDIRECT_CALL: 0.7298
BRANCH_RETURN: 0.3936

cpu0->cpu0_STLB TOTAL        ACCESS:     828709 HIT:     691614 MISS:     137095 MSHR_MERGE:          0
cpu0->cpu0_STLB LOAD         ACCESS:     828709 HIT:     691614 MISS:     137095 MSHR_MERGE:          0
cpu0->cpu0_STLB RFO          ACCESS:          0 HIT:          0 MISS:          0 MSHR_MERGE:          0
cpu0->cpu0_STLB PREFETCH     ACCESS:          0 HIT:          0 MISS:          0 MSHR_MERGE:          0
cpu0->cpu0_STLB WRITE        ACCESS:          0 HIT:          0 MISS:          0 MSHR_MERGE:          0
cpu0->cpu0_STLB TRANSLATION  ACCESS:          0 HIT:          0 MISS:          0 MSHR_MERGE:          0
cpu0->cpu0_STLB PREFETCH REQUESTED:          0 ISSUED:          0 USEFUL:          0 USELESS:          0
cpu0->cpu0_STLB AVERAGE MISS LATENCY: 214.7 cycles
cpu0->cpu0_L2C TOTAL        ACCESS:    1873202 HIT:     838932 MISS:    1034270 MSHR_MERGE:          0
cpu0->cpu0_L2C LOAD         ACCESS:     933889 HIT:     278953 MISS:     654936 MSHR_MERGE:          0
cpu0->cpu0_L2C RFO          ACCESS:     139151 HIT:      32609 MISS:     106542 MSHR_MERGE:          0
cpu0->cpu0_L2C PREFETCH     ACCESS:          0 HIT:          0 MISS:          0 MSHR_MERGE:          0
cpu0->cpu0_L2C WRITE        ACCESS:     506876 HIT:     504655 MISS:       2221 MSHR_MERGE:          0
cpu0->cpu0_L2C TRANSLATION  ACCESS:     293286 HIT:      22715 MISS:     270571 MSHR_MERGE:          0
cpu0->cpu0_L2C PREFETCH REQUESTED:          0 ISSUED:          0 USEFUL:          0 USELESS:          0
cpu0->cpu0_L2C AVERAGE MISS LATENCY: 83.18 cycles
cpu0->cpu0_L1I TOTAL        ACCESS:    7910108 HIT:    7885064 MISS:      25044 MSHR_MERGE:       6552
cpu0->cpu0_L1I LOAD         ACCESS:    7910108 HIT:    7885064 MISS:      25044 MSHR_MERGE:       6552
cpu0->cpu0_L1I RFO          ACCESS:          0 HIT:          0 MISS:          0 MSHR_MERGE:          0
cpu0->cpu0_L1I PREFETCH     ACCESS:          0 HIT:          0 MISS:          0 MSHR_MERGE:          0
cpu0->cpu0_L1I WRITE        ACCESS:          0 HIT:          0 MISS:          0 MSHR_MERGE:          0
cpu0->cpu0_L1I TRANSLATION  ACCESS:          0 HIT:          0 MISS:          0 MSHR_MERGE:          0
cpu0->cpu0_L1I PREFETCH REQUESTED:          0 ISSUED:          0 USEFUL:          0 USELESS:          0
cpu0->cpu0_L1I AVERAGE MISS LATENCY: 22.1 cycles
cpu0->cpu0_L1D TOTAL        ACCESS:   18753742 HIT:   16947799 MISS:    1805943 MSHR_MERGE:     458098
cpu0->cpu0_L1D LOAD         ACCESS:    9416487 HIT:    8289784 MISS:    1126703 MSHR_MERGE:     211303
cpu0->cpu0_L1D RFO          ACCESS:          0 HIT:          0 MISS:          0 MSHR_MERGE:          0
cpu0->cpu0_L1D PREFETCH     ACCESS:          0 HIT:          0 MISS:          0 MSHR_MERGE:          0
cpu0->cpu0_L1D WRITE        ACCESS:    9035990 HIT:    8650344 MISS:     385646 MSHR_MERGE:     246487
cpu0->cpu0_L1D TRANSLATION  ACCESS:     301265 HIT:       7671 MISS:     293594 MSHR_MERGE:        308
cpu0->cpu0_L1D PREFETCH REQUESTED:          0 ISSUED:          0 USEFUL:          0 USELESS:          0
cpu0->cpu0_L1D AVERAGE MISS LATENCY: 72.4 cycles
cpu0->cpu0_ITLB TOTAL        ACCESS:    7251588 HIT:    7251384 MISS:        204 MSHR_MERGE:        100
cpu0->cpu0_ITLB LOAD         ACCESS:    7251588 HIT:    7251384 MISS:        204 MSHR_MERGE:        100
cpu0->cpu0_ITLB RFO          ACCESS:          0 HIT:          0 MISS:          0 MSHR_MERGE:          0
cpu0->cpu0_ITLB PREFETCH     ACCESS:          0 HIT:          0 MISS:          0 MSHR_MERGE:          0
cpu0->cpu0_ITLB WRITE        ACCESS:          0 HIT:          0 MISS:          0 MSHR_MERGE:          0
cpu0->cpu0_ITLB TRANSLATION  ACCESS:          0 HIT:          0 MISS:          0 MSHR_MERGE:          0
cpu0->cpu0_ITLB PREFETCH REQUESTED:          0 ISSUED:          0 USEFUL:          0 USELESS:          0
cpu0->cpu0_ITLB AVERAGE MISS LATENCY: 148.8 cycles
cpu0->cpu0_DTLB TOTAL        ACCESS:   17193348 HIT:   16242766 MISS:     950582 MSHR_MERGE:     121976
cpu0->cpu0_DTLB LOAD         ACCESS:   17193348 HIT:   16242766 MISS:     950582 MSHR_MERGE:     121976
cpu0->cpu0_DTLB RFO          ACCESS:          0 HIT:          0 MISS:          0 MSHR_MERGE:          0
cpu0->cpu0_DTLB PREFETCH     ACCESS:          0 HIT:          0 MISS:          0 MSHR_MERGE:          0
cpu0->cpu0_DTLB WRITE        ACCESS:          0 HIT:          0 MISS:          0 MSHR_MERGE:          0
cpu0->cpu0_DTLB TRANSLATION  ACCESS:          0 HIT:          0 MISS:          0 MSHR_MERGE:          0
cpu0->cpu0_DTLB PREFETCH REQUESTED:          0 ISSUED:          0 USEFUL:          0 USELESS:          0
cpu0->cpu0_DTLB AVERAGE MISS LATENCY: 39.67 cycles
cpu0->LLC TOTAL        ACCESS:    1411829 HIT:     337351 MISS:    1074478 MSHR_MERGE:          0
cpu0->LLC LOAD         ACCESS:     654936 HIT:     130123 MISS:     524813 MSHR_MERGE:          0
cpu0->LLC RFO          ACCESS:     106542 HIT:      23702 MISS:      82840 MSHR_MERGE:          0
cpu0->LLC PREFETCH     ACCESS:          0 HIT:          0 MISS:          0 MSHR_MERGE:          0
cpu0->LLC WRITE        ACCESS:     379780 HIT:     126319 MISS:     253461 MSHR_MERGE:          0
cpu0->LLC TRANSLATION  ACCESS:     270571 HIT:      57207 MISS:     213364 MSHR_MERGE:          0
cpu0->LLC PREFETCH REQUESTED:          0 ISSUED:          0 USEFUL:          0 USELESS:          0
cpu0->LLC AVERAGE MISS LATENCY: 66.05 cycles

DRAM Statistics

Channel 0 RQ ROW_BUFFER_HIT:      15043
  ROW_BUFFER_MISS:     805954
  AVG DBUS CONGESTED CYCLE: 12
Channel 0 WQ ROW_BUFFER_HIT:      41934
  ROW_BUFFER_MISS:     236477
  FULL:          0
Channel 0 REFRESHES ISSUED:       8885
