[VMEM] WARNING: physical memory size is smaller than virtual memory size.
WARNING: option --warmup_instructions is deprecated. Use --warmup-instructions instead.
WARNING: option --simulation_instructions is deprecated. Use --simulation-instructions instead.

*** ChampSim Multicore Out-of-Order Simulator ***
Warmup Instructions: 20000000
Simulation Instructions: 50000000
Number of CPUs: 1
Page size: 8192

Off-chip DRAM Size: 16 GiB Channels: 1 Width: 64-bit Data Rate: 3205 MT/s
Heartbeat CPU 0 instructions: 10000000 cycles: 6987332 heartbeat IPC: 1.431 cumulative IPC: 1.431 (Simulation time: 00 hr 01 min 11 sec)
Heartbeat CPU 0 instructions: 20000001 cycles: 11068117 heartbeat IPC: 2.451 cumulative IPC: 1.807 (Simulation time: 00 hr 02 min 04 sec)
Warmup finished CPU 0 instructions: 20000001 cycles: 11068117 cumulative IPC: 1.807 (Simulation time: 00 hr 02 min 04 sec)
Warmup complete CPU 0 instructions: 20000001 cycles: 11068117 cumulative IPC: 1.807 (Simulation time: 00 hr 02 min 04 sec)
Heartbeat CPU 0 instructions: 30000003 cycles: 47113220 heartbeat IPC: 0.2774 cumulative IPC: 0.2774 (Simulation time: 00 hr 05 min 25 sec)
Heartbeat CPU 0 instructions: 40000005 cycles: 83085161 heartbeat IPC: 0.278 cumulative IPC: 0.2777 (Simulation time: 00 hr 08 min 48 sec)
Heartbeat CPU 0 instructions: 50000006 cycles: 119459718 heartbeat IPC: 0.2749 cumulative IPC: 0.2768 (Simulation time: 00 hr 12 min 16 sec)
Heartbeat CPU 0 instructions: 60000007 cycles: 155385031 heartbeat IPC: 0.2784 cumulative IPC: 0.2772 (Simulation time: 00 hr 15 min 39 sec)
Simulation finished CPU 0 instructions: 50000002 cycles: 179276630 cumulative IPC: 0.2789 (Simulation time: 00 hr 18 min 56 sec)
Simulation complete CPU 0 instructions: 50000002 cycles: 179276630 cumulative IPC: 0.2789 (Simulation time: 00 hr 18 min 56 sec)

ChampSim completed all CPUs

=== Simulation ===
CPU 0 runs traces/473.astar-359B.champsimtrace.xz

Region of Interest Statistics

CPU 0 cumulative IPC: 0.2789 instructions: 50000002 cycles: 179276630
CPU 0 Branch Prediction Accuracy: 93.2% MPKI: 13.43 Average ROB Occupancy at Mispredict: 44.43
Branch type MPKI
BRANCH_DIRECT_JUMP: 0
BRANCH_INDIRECT: 0
BRANCH_CONDITIONAL: 13.42
BRANCH_DIRECT_CALL: 0
BRANCH_INDIRECT_CALL: 0.00054
BRANCH_RETURN: 0

cpu0->cpu0_STLB TOTAL        ACCESS:    1275708 HIT:     889443 MISS:     386265 MSHR_MERGE:          0
cpu0->cpu0_STLB LOAD         ACCESS:    1275708 HIT:     889443 MISS:     386265 MSHR_MERGE:          0
cpu0->cpu0_STLB RFO          ACCESS:          0 HIT:          0 MISS:          0 MSHR_MERGE:          0
cpu0->cpu0_STLB PREFETCH     ACCESS:          0 HIT:          0 MISS:          0 MSHR_MERGE:          0
cpu0->cpu0_STLB WRITE        ACCESS:          0 HIT:          0 MISS:          0 MSHR_MERGE:          0
cpu0->cpu0_STLB TRANSLATION  ACCESS:          0 HIT:          0 MISS:          0 MSHR_MERGE:          0
cpu0->cpu0_STLB PREFETCH REQUESTED:          0 ISSUED:          0 USEFUL:          0 USELESS:          0
cpu0->cpu0_STLB AVERAGE MISS LATENCY: 343.7 cycles
cpu0->cpu0_L2C TOTAL        ACCESS:    4361333 HIT:    1957067 MISS:    2404266 MSHR_MERGE:          0
cpu0->cpu0_L2C LOAD         ACCESS:    1775427 HIT:     732504 MISS:    1042923 MSHR_MERGE:          0
cpu0->cpu0_L2C RFO          ACCESS:     767641 HIT:      47647 MISS:     719994 MSHR_MERGE:          0
cpu0->cpu0_L2C PREFETCH     ACCESS:          0 HIT:          0 MISS:          0 MSHR_MERGE:          0
cpu0->cpu0_L2C WRITE        ACCESS:    1168870 HIT:    1168836 MISS:         34 MSHR_MERGE:          0
cpu0->cpu0_L2C TRANSLATION  ACCESS:     649395 HIT:       8080 MISS:     641315 MSHR_MERGE:          0
cpu0->cpu0_L2C PREFETCH REQUESTED:          0 ISSUED:          0 USEFUL:          0 USELESS:          0
cpu0->cpu0_L2C AVERAGE MISS LATENCY: 159.9 cycles
cpu0->cpu0_L1I TOTAL        ACCESS:     832299 HIT:     832292 MISS:          7 MSHR_MERGE:          0
cpu0->cpu0_L1I LOAD         ACCESS:     832299 HIT:     832292 MISS:          7 MSHR_MERGE:          0
cpu0->cpu0_L1I RFO          ACCESS:          0 HIT:          0 MISS:          0 MSHR_MERGE:          0
cpu0->cpu0_L1I PREFETCH     ACCESS:          0 HIT:          0 MISS:          0 MSHR_MERGE:          0
cpu0->cpu0_L1I WRITE        ACCESS:          0 HIT:          0 MISS:          0 MSHR_MERGE:          0
cpu0->cpu0_L1I TRANSLATION  ACCESS:          0 HIT:          0 MISS:          0 MSHR_MERGE:          0
cpu0->cpu0_L1I PREFETCH REQUESTED:          0 ISSUED:          0 USEFUL:          0 USELESS:          0
cpu0->cpu0_L1I AVERAGE MISS LATENCY: 114.3 cycles
cpu0->cpu0_L1D TOTAL        ACCESS:   19886638 HIT:   15899900 MISS:    3986738 MSHR_MERGE:     794278
cpu0->cpu0_L1D LOAD         ACCESS:   12797632 HIT:   10315800 MISS:    2481832 MSHR_MERGE:     706409
cpu0->cpu0_L1D RFO          ACCESS:          0 HIT:          0 MISS:          0 MSHR_MERGE:          0
cpu0->cpu0_L1D PREFETCH     ACCESS:          0 HIT:          0 MISS:          0 MSHR_MERGE:          0
cpu0->cpu0_L1D WRITE        ACCESS:    6314576 HIT:    5546878 MISS:     767698 MSHR_MERGE:         56
cpu0->cpu0_L1D TRANSLATION  ACCESS:     774430 HIT:      37222 MISS:     737208 MSHR_MERGE:      87813
cpu0->cpu0_L1D PREFETCH REQUESTED:          0 ISSUED:          0 USEFUL:          0 USELESS:          0
cpu0->cpu0_L1D AVERAGE MISS LATENCY: 129.3 cycles
cpu0->cpu0_ITLB TOTAL        ACCESS:     829755 HIT:     829755 MISS:          0 MSHR_MERGE:          0
cpu0->cpu0_ITLB LOAD         ACCESS:     829755 HIT:     829755 MISS:          0 MSHR_MERGE:          0
cpu0->cpu0_ITLB RFO          ACCESS:          0 HIT:          0 MISS:          0 MSHR_MERGE:          0
cpu0->cpu0_ITLB PREFETCH     ACCESS:          0 HIT:          0 MISS:          0 MSHR_MERGE:          0
cpu0->cpu0_ITLB WRITE        ACCESS:          0 HIT:          0 MISS:          0 MSHR_MERGE:          0
cpu0->cpu0_ITLB TRANSLATION  ACCESS:          0 HIT:          0 MISS:          0 MSHR_MERGE:          0
cpu0->cpu0_ITLB PREFETCH REQUESTED:          0 ISSUED:          0 USEFUL:          0 USELESS:          0
cpu0->cpu0_ITLB AVERAGE MISS LATENCY: - cycles
cpu0->cpu0_DTLB TOTAL        ACCESS:   18170768 HIT:   16306142 MISS:    1864626 MSHR_MERGE:     588918
cpu0->cpu0_DTLB LOAD         ACCESS:   18170768 HIT:   16306142 MISS:    1864626 MSHR_MERGE:     588918
cpu0->cpu0_DTLB RFO          ACCESS:          0 HIT:          0 MISS:          0 MSHR_MERGE:          0
cpu0->cpu0_DTLB PREFETCH     ACCESS:          0 HIT:          0 MISS:          0 MSHR_MERGE:          0
cpu0->cpu0_DTLB WRITE        ACCESS:          0 HIT:          0 MISS:          0 MSHR_MERGE:          0
cpu0->cpu0_DTLB TRANSLATION  ACCESS:          0 HIT:          0 MISS:          0 MSHR_MERGE:          0
cpu0->cpu0_DTLB PREFETCH REQUESTED:          0 ISSUED:          0 USEFUL:          0 USELESS:          0
cpu0->cpu0_DTLB AVERAGE MISS LATENCY: 108.4 cycles
cpu0->LLC TOTAL        ACCESS:    3523630 HIT:     758660 MISS:    2764970 MSHR_MERGE:          0
cpu0->LLC LOAD         ACCESS:    1042923 HIT:     207526 MISS:     835397 MSHR_MERGE:          0
cpu0->LLC RFO          ACCESS:     719993 HIT:     140398 MISS:     579595 MSHR_MERGE:          0
cpu0->LLC PREFETCH     ACCESS:          0 HIT:          0 MISS:          0 MSHR_MERGE:          0
cpu0->LLC WRITE        ACCESS:    1119399 HIT:     288982 MISS:     830417 MSHR_MERGE:          0
cpu0->LLC TRANSLATION  ACCESS:     641315 HIT:     121754 MISS:     519561 MSHR_MERGE:          0
cpu0->LLC PREFETCH REQUESTED:          0 ISSUED:          0 USEFUL:          0 USELESS:          0
cpu0->LLC AVERAGE MISS LATENCY: 127.2 cycles

DRAM Statistics

Channel 0 RQ ROW_BUFFER_HIT:      36260
  ROW_BUFFER_MISS:    1898234
  AVG DBUS CONGESTED CYCLE: 8.346
Channel 0 WQ ROW_BUFFER_HIT:      76041
  ROW_BUFFER_MISS:     804090
  FULL:         14
Channel 0 REFRESHES ISSUED:      14940
