[VMEM] WARNING: physical memory size is smaller than virtual memory size.
WARNING: option --warmup_instructions is deprecated. Use --warmup-instructions instead.
WARNING: option --simulation_instructions is deprecated. Use --simulation-instructions instead.

*** ChampSim Multicore Out-of-Order Simulator ***
Warmup Instructions: 20000000
Simulation Instructions: 50000000
Number of CPUs: 1
Page size: 8192

Off-chip DRAM Size: 16 GiB Channels: 1 Width: 64-bit Data Rate: 3205 MT/s
Heartbeat CPU 0 instructions: 10000001 cycles: 4633260 heartbeat IPC: 2.158 cumulative IPC: 2.158 (Simulation time: 00 hr 00 min 54 sec)
Heartbeat CPU 0 instructions: 20000002 cycles: 9212804 heartbeat IPC: 2.184 cumulative IPC: 2.171 (Simulation time: 00 hr 01 min 48 sec)
Warmup finished CPU 0 instructions: 20000002 cycles: 9212804 cumulative IPC: 2.171 (Simulation time: 00 hr 01 min 48 sec)
Warmup complete CPU 0 instructions: 20000002 cycles: 9212804 cumulative IPC: 2.171 (Simulation time: 00 hr 01 min 48 sec)
Heartbeat CPU 0 instructions: 30000005 cycles: 40755126 heartbeat IPC: 0.317 cumulative IPC: 0.317 (Simulation time: 00 hr 04 min 30 sec)
Heartbeat CPU 0 instructions: 40000005 cycles: 72129838 heartbeat IPC: 0.3187 cumulative IPC: 0.3179 (Simulation time: 00 hr 07 min 12 sec)
Heartbeat CPU 0 instructions: 50000007 cycles: 103961787 heartbeat IPC: 0.3141 cumulative IPC: 0.3166 (Simulation time: 00 hr 09 min 54 sec)
Heartbeat CPU 0 instructions: 60000007 cycles: 135546433 heartbeat IPC: 0.3166 cumulative IPC: 0.3166 (Simulation time: 00 hr 12 min 38 sec)
Simulation finished CPU 0 instructions: 50000002 cycles: 158520553 cumulative IPC: 0.3154 (Simulation time: 00 hr 15 min 26 sec)
Simulation complete CPU 0 instructions: 50000002 cycles: 158520553 cumulative IPC: 0.3154 (Simulation time: 00 hr 15 min 26 sec)

ChampSim completed all CPUs

=== Simulation ===
CPU 0 runs traces/605.mcf_s-1152B.champsimtrace.xz

Region of Interest Statistics

CPU 0 cumulative IPC: 0.3154 instructions: 50000002 cycles: 158520553
CPU 0 Branch Prediction Accuracy: 90.19% MPKI: 24.48 Average ROB Occupancy at Mispredict: 21.34
Branch type MPKI
BRANCH_DIRECT_JUMP: 0.2057
BRANCH_INDIRECT: 0
BRANCH_CONDITIONAL: 24.27
BRANCH_DIRECT_CALL: 0
BRANCH_INDIRECT_CALL: 0.0036
BRANCH_RETURN: 2e-05

cpu0->cpu0_STLB TOTAL        ACCESS:    1006282 HIT:    1000525 MISS:       5757 MSHR_MERGE:          0
cpu0->cpu0_STLB LOAD         ACCESS:    1006282 HIT:    1000525 MISS:       5757 MSHR_MERGE:          0
cpu0->cpu0_STLB RFO          ACCESS:          0 HIT:          0 MISS:          0 MSHR_MERGE:          0
cpu0->cpu0_STLB PREFETCH     ACCESS:          0 HIT:          0 MISS:          0 MSHR_MERGE:          0
cpu0->cpu0_STLB WRITE        ACCESS:          0 HIT:          0 MISS:          0 MSHR_MERGE:          0
cpu0->cpu0_STLB TRANSLATION  ACCESS:          0 HIT:          0 MISS:          0 MSHR_MERGE:          0
cpu0->cpu0_STLB PREFETCH REQUESTED:          0 ISSUED:          0 USEFUL:          0 USELESS:          0
cpu0->cpu0_STLB AVERAGE MISS LATENCY: 538.5 cycles
cpu0->cpu0_L2C TOTAL        ACCESS:    3014285 HIT:     737620 MISS:    2276665 MSHR_MERGE:          0
cpu0->cpu0_L2C LOAD         ACCESS:    2552740 HIT:     417418 MISS:    2135322 MSHR_MERGE:          0
cpu0->cpu0_L2C RFO          ACCESS:     187392 HIT:      53173 MISS:     134219 MSHR_MERGE:          0
cpu0->cpu0_L2C PREFETCH     ACCESS:          0 HIT:          0 MISS:          0 MSHR_MERGE:          0
cpu0->cpu0_L2C WRITE        ACCESS:     265809 HIT:     265490 MISS:        319 MSHR_MERGE:          0
cpu0->cpu0_L2C TRANSLATION  ACCESS:       8344 HIT:       1539 MISS:       6805 MSHR_MERGE:          0
cpu0->cpu0_L2C PREFETCH REQUESTED:          0 ISSUED:          0 USEFUL:          0 USELESS:          0
cpu0->cpu0_L2C AVERAGE MISS LATENCY: 47.6 cycles
cpu0->cpu0_L1I TOTAL        ACCESS:     436227 HIT:     436227 MISS:          0 MSHR_MERGE:          0
cpu0->cpu0_L1I LOAD         ACCESS:     436227 HIT:     436227 MISS:          0 MSHR_MERGE:          0
cpu0->cpu0_L1I RFO          ACCESS:          0 HIT:          0 MISS:          0 MSHR_MERGE:          0
cpu0->cpu0_L1I PREFETCH     ACCESS:          0 HIT:          0 MISS:          0 MSHR_MERGE:          0
cpu0->cpu0_L1I WRITE        ACCESS:          0 HIT:          0 MISS:          0 MSHR_MERGE:          0
cpu0->cpu0_L1I TRANSLATION  ACCESS:          0 HIT:          0 MISS:          0 MSHR_MERGE:          0
cpu0->cpu0_L1I PREFETCH REQUESTED:          0 ISSUED:          0 USEFUL:          0 USELESS:          0
cpu0->cpu0_L1I AVERAGE MISS LATENCY: - cycles
cpu0->cpu0_L1D TOTAL        ACCESS:   17996604 HIT:   14341901 MISS:    3654703 MSHR_MERGE:     906223
cpu0->cpu0_L1D LOAD         ACCESS:   12820679 HIT:    9655426 MISS:    3165253 MSHR_MERGE:     612512
cpu0->cpu0_L1D RFO          ACCESS:          0 HIT:          0 MISS:          0 MSHR_MERGE:          0
cpu0->cpu0_L1D PREFETCH     ACCESS:          0 HIT:          0 MISS:          0 MSHR_MERGE:          0
cpu0->cpu0_L1D WRITE        ACCESS:    5164315 HIT:    4683209 MISS:     481106 MSHR_MERGE:     293711
cpu0->cpu0_L1D TRANSLATION  ACCESS:      11610 HIT:       3266 MISS:       8344 MSHR_MERGE:          0
cpu0->cpu0_L1D PREFETCH REQUESTED:          0 ISSUED:          0 USEFUL:          0 USELESS:          0
cpu0->cpu0_L1D AVERAGE MISS LATENCY: 48.25 cycles
cpu0->cpu0_ITLB TOTAL        ACCESS:     404648 HIT:     404648 MISS:          0 MSHR_MERGE:          0
cpu0->cpu0_ITLB LOAD         ACCESS:     404648 HIT:     404648 MISS:          0 MSHR_MERGE:          0
cpu0->cpu0_ITLB RFO          ACCESS:          0 HIT:          0 MISS:          0 MSHR_MERGE:          0
cpu0->cpu0_ITLB PREFETCH     ACCESS:          0 HIT:          0 MISS:          0 MSHR_MERGE:          0
cpu0->cpu0_ITLB WRITE        ACCESS:          0 HIT:          0 MISS:          0 MSHR_MERGE:          0
cpu0->cpu0_ITLB TRANSLATION  ACCESS:          0 HIT:          0 MISS:          0 MSHR_MERGE:          0
cpu0->cpu0_ITLB PREFETCH REQUESTED:          0 ISSUED:          0 USEFUL:          0 USELESS:          0
cpu0->cpu0_ITLB AVERAGE MISS LATENCY: - cycles
cpu0->cpu0_DTLB TOTAL        ACCESS:   16858484 HIT:   15666221 MISS:    1192263 MSHR_MERGE:     185981
cpu0->cpu0_DTLB LOAD         ACCESS:   16858484 HIT:   15666221 MISS:    1192263 MSHR_MERGE:     185981
cpu0->cpu0_DTLB RFO          ACCESS:          0 HIT:          0 MISS:          0 MSHR_MERGE:          0
cpu0->cpu0_DTLB PREFETCH     ACCESS:          0 HIT:          0 MISS:          0 MSHR_MERGE:          0
cpu0->cpu0_DTLB WRITE        ACCESS:          0 HIT:          0 MISS:          0 MSHR_MERGE:          0
cpu0->cpu0_DTLB TRANSLATION  ACCESS:          0 HIT:          0 MISS:          0 MSHR_MERGE:          0
cpu0->cpu0_DTLB PREFETCH REQUESTED:          0 ISSUED:          0 USEFUL:          0 USELESS:          0
cpu0->cpu0_DTLB AVERAGE MISS LATENCY: 7.086 cycles
cpu0->LLC TOTAL        ACCESS:    2479307 HIT:    1446675 MISS:    1032632 MSHR_MERGE:          0
cpu0->LLC LOAD         ACCESS:    2135321 HIT:    1115205 MISS:    1020116 MSHR_MERGE:          0
cpu0->LLC RFO          ACCESS:     134219 HIT:     132619 MISS:       1600 MSHR_MERGE:          0
cpu0->LLC PREFETCH     ACCESS:          0 HIT:          0 MISS:          0 MSHR_MERGE:          0
cpu0->LLC WRITE        ACCESS:     202962 HIT:     198837 MISS:       4125 MSHR_MERGE:          0
cpu0->LLC TRANSLATION  ACCESS:       6805 HIT:         14 MISS:       6791 MSHR_MERGE:          0
cpu0->LLC PREFETCH REQUESTED:          0 ISSUED:          0 USEFUL:          0 USELESS:          0
cpu0->LLC AVERAGE MISS LATENCY: 68.7 cycles

DRAM Statistics

Channel 0 RQ ROW_BUFFER_HIT:     235413
  ROW_BUFFER_MISS:     793092
  AVG DBUS CONGESTED CYCLE: 4.71
Channel 0 WQ ROW_BUFFER_HIT:        756
  ROW_BUFFER_MISS:       5693
  FULL:          0
Channel 0 REFRESHES ISSUED:      13210
