[VMEM] WARNING: physical memory size is smaller than virtual memory size.

*** ChampSim Multicore Out-of-Order Simulator ***
Warmup Instructions: 100000000
Simulation Instructions: 500000000
Number of CPUs: 1
Page size: 4096

Off-chip DRAM Size: 16 GiB Channels: 1 Width: 64-bit Data Rate: 3205 MT/s
Heartbeat CPU 0 instructions: 10000000 cycles: 2973809 heartbeat IPC: 3.363 cumulative IPC: 3.363 (Simulation time: 00 hr 00 min 56 sec)
Heartbeat CPU 0 instructions: 20000000 cycles: 5933638 heartbeat IPC: 3.379 cumulative IPC: 3.371 (Simulation time: 00 hr 02 min 02 sec)
Heartbeat CPU 0 instructions: 30000002 cycles: 8893949 heartbeat IPC: 3.378 cumulative IPC: 3.373 (Simulation time: 00 hr 03 min 10 sec)
Heartbeat CPU 0 instructions: 40000004 cycles: 11852960 heartbeat IPC: 3.38 cumulative IPC: 3.375 (Simulation time: 00 hr 04 min 15 sec)
Heartbeat CPU 0 instructions: 50000004 cycles: 14813344 heartbeat IPC: 3.378 cumulative IPC: 3.375 (Simulation time: 00 hr 05 min 25 sec)
Heartbeat CPU 0 instructions: 60000007 cycles: 17772721 heartbeat IPC: 3.379 cumulative IPC: 3.376 (Simulation time: 00 hr 06 min 30 sec)
Heartbeat CPU 0 instructions: 70000007 cycles: 20732058 heartbeat IPC: 3.379 cumulative IPC: 3.376 (Simulation time: 00 hr 07 min 37 sec)
Heartbeat CPU 0 instructions: 80000010 cycles: 23692640 heartbeat IPC: 3.378 cumulative IPC: 3.377 (Simulation time: 00 hr 08 min 45 sec)
Heartbeat CPU 0 instructions: 90000012 cycles: 26652089 heartbeat IPC: 3.379 cumulative IPC: 3.377 (Simulation time: 00 hr 09 min 52 sec)
Warmup finished CPU 0 instructions: 100000000 cycles: 29611404 cumulative IPC: 3.377 (Simulation time: 00 hr 11 min 03 sec)
Warmup complete CPU 0 instructions: 100000000 cycles: 29611404 cumulative IPC: 3.377 (Simulation time: 00 hr 11 min 03 sec)
Heartbeat CPU 0 instructions: 100000015 cycles: 29611407 heartbeat IPC: 3.379 cumulative IPC: 5 (Simulation time: 00 hr 11 min 03 sec)
Heartbeat CPU 0 instructions: 110000016 cycles: 55329111 heartbeat IPC: 0.3888 cumulative IPC: 0.3888 (Simulation time: 00 hr 17 min 15 sec)
Heartbeat CPU 0 instructions: 120000020 cycles: 81143098 heartbeat IPC: 0.3874 cumulative IPC: 0.3881 (Simulation time: 00 hr 23 min 22 sec)
Heartbeat CPU 0 instructions: 130000020 cycles: 106801560 heartbeat IPC: 0.3897 cumulative IPC: 0.3887 (Simulation time: 00 hr 29 min 22 sec)
Heartbeat CPU 0 instructions: 140000024 cycles: 132482310 heartbeat IPC: 0.3894 cumulative IPC: 0.3888 (Simulation time: 00 hr 35 min 20 sec)
Heartbeat CPU 0 instructions: 150000024 cycles: 158494512 heartbeat IPC: 0.3844 cumulative IPC: 0.3879 (Simulation time: 00 hr 41 min 26 sec)
Heartbeat CPU 0 instructions: 160000028 cycles: 184314312 heartbeat IPC: 0.3873 cumulative IPC: 0.3878 (Simulation time: 00 hr 47 min 25 sec)
Heartbeat CPU 0 instructions: 170000028 cycles: 210165732 heartbeat IPC: 0.3868 cumulative IPC: 0.3877 (Simulation time: 00 hr 53 min 18 sec)
Heartbeat CPU 0 instructions: 180000031 cycles: 235945356 heartbeat IPC: 0.3879 cumulative IPC: 0.3877 (Simulation time: 00 hr 59 min 03 sec)
Heartbeat CPU 0 instructions: 190000034 cycles: 261659683 heartbeat IPC: 0.3889 cumulative IPC: 0.3879 (Simulation time: 01 hr 04 min 46 sec)
Heartbeat CPU 0 instructions: 200000035 cycles: 287591623 heartbeat IPC: 0.3856 cumulative IPC: 0.3876 (Simulation time: 01 hr 10 min 31 sec)
Heartbeat CPU 0 instructions: 210000038 cycles: 313276865 heartbeat IPC: 0.3893 cumulative IPC: 0.3878 (Simulation time: 01 hr 16 min 15 sec)
Heartbeat CPU 0 instructions: 220000038 cycles: 339137932 heartbeat IPC: 0.3867 cumulative IPC: 0.3877 (Simulation time: 01 hr 22 min 01 sec)
Heartbeat CPU 0 instructions: 230000038 cycles: 365023834 heartbeat IPC: 0.3863 cumulative IPC: 0.3876 (Simulation time: 01 hr 27 min 44 sec)
Heartbeat CPU 0 instructions: 240000042 cycles: 390965094 heartbeat IPC: 0.3855 cumulative IPC: 0.3874 (Simulation time: 01 hr 33 min 29 sec)
Heartbeat CPU 0 instructions: 250000042 cycles: 416692984 heartbeat IPC: 0.3887 cumulative IPC: 0.3875 (Simulation time: 01 hr 39 min 13 sec)
Heartbeat CPU 0 instructions: 260000046 cycles: 442454956 heartbeat IPC: 0.3882 cumulative IPC: 0.3876 (Simulation time: 01 hr 44 min 57 sec)
Heartbeat CPU 0 instructions: 270000046 cycles: 465729125 heartbeat IPC: 0.4297 cumulative IPC: 0.3898 (Simulation time: 01 hr 50 min 08 sec)
Heartbeat CPU 0 instructions: 280000047 cycles: 487302164 heartbeat IPC: 0.4635 cumulative IPC: 0.3933 (Simulation time: 01 hr 54 min 57 sec)
Heartbeat CPU 0 instructions: 290000048 cycles: 513389115 heartbeat IPC: 0.3833 cumulative IPC: 0.3927 (Simulation time: 02 hr 00 min 45 sec)
Heartbeat CPU 0 instructions: 300000052 cycles: 539412812 heartbeat IPC: 0.3843 cumulative IPC: 0.3923 (Simulation time: 02 hr 06 min 41 sec)
Heartbeat CPU 0 instructions: 310000052 cycles: 565289669 heartbeat IPC: 0.3864 cumulative IPC: 0.392 (Simulation time: 02 hr 12 min 48 sec)
Heartbeat CPU 0 instructions: 320000056 cycles: 591004884 heartbeat IPC: 0.3889 cumulative IPC: 0.3919 (Simulation time: 02 hr 18 min 34 sec)
Heartbeat CPU 0 instructions: 330000056 cycles: 616892279 heartbeat IPC: 0.3863 cumulative IPC: 0.3916 (Simulation time: 02 hr 24 min 23 sec)
Heartbeat CPU 0 instructions: 340000060 cycles: 642843361 heartbeat IPC: 0.3853 cumulative IPC: 0.3914 (Simulation time: 02 hr 30 min 22 sec)
Heartbeat CPU 0 instructions: 350000064 cycles: 668857889 heartbeat IPC: 0.3844 cumulative IPC: 0.3911 (Simulation time: 02 hr 37 min 23 sec)
Heartbeat CPU 0 instructions: 360000067 cycles: 695025220 heartbeat IPC: 0.3822 cumulative IPC: 0.3907 (Simulation time: 02 hr 44 min 17 sec)
Heartbeat CPU 0 instructions: 370000068 cycles: 721154679 heartbeat IPC: 0.3827 cumulative IPC: 0.3904 (Simulation time: 02 hr 51 min 12 sec)
Heartbeat CPU 0 instructions: 380000070 cycles: 747052301 heartbeat IPC: 0.3861 cumulative IPC: 0.3903 (Simulation time: 02 hr 57 min 58 sec)
Heartbeat CPU 0 instructions: 390000072 cycles: 772982423 heartbeat IPC: 0.3857 cumulative IPC: 0.3901 (Simulation time: 03 hr 04 min 58 sec)
Heartbeat CPU 0 instructions: 400000075 cycles: 798901502 heartbeat IPC: 0.3858 cumulative IPC: 0.39 (Simulation time: 03 hr 11 min 50 sec)
Heartbeat CPU 0 instructions: 410000076 cycles: 825040788 heartbeat IPC: 0.3826 cumulative IPC: 0.3897 (Simulation time: 03 hr 18 min 42 sec)
Heartbeat CPU 0 instructions: 420000079 cycles: 850815487 heartbeat IPC: 0.388 cumulative IPC: 0.3897 (Simulation time: 03 hr 25 min 22 sec)
Heartbeat CPU 0 instructions: 430000079 cycles: 876793112 heartbeat IPC: 0.3849 cumulative IPC: 0.3895 (Simulation time: 03 hr 31 min 57 sec)
Heartbeat CPU 0 instructions: 440000083 cycles: 902655634 heartbeat IPC: 0.3867 cumulative IPC: 0.3894 (Simulation time: 03 hr 37 min 12 sec)
Heartbeat CPU 0 instructions: 450000084 cycles: 928715499 heartbeat IPC: 0.3837 cumulative IPC: 0.3893 (Simulation time: 03 hr 42 min 07 sec)
Heartbeat CPU 0 instructions: 460000085 cycles: 954610091 heartbeat IPC: 0.3862 cumulative IPC: 0.3892 (Simulation time: 03 hr 47 min 11 sec)
Heartbeat CPU 0 instructions: 470000086 cycles: 980502683 heartbeat IPC: 0.3862 cumulative IPC: 0.3891 (Simulation time: 03 hr 51 min 48 sec)
Heartbeat CPU 0 instructions: 480000089 cycles: 1006438521 heartbeat IPC: 0.3856 cumulative IPC: 0.389 (Simulation time: 03 hr 56 min 30 sec)
Heartbeat CPU 0 instructions: 490000090 cycles: 1032169432 heartbeat IPC: 0.3886 cumulative IPC: 0.389 (Simulation time: 04 hr 01 min 21 sec)
Heartbeat CPU 0 instructions: 500000094 cycles: 1058193617 heartbeat IPC: 0.3843 cumulative IPC: 0.3889 (Simulation time: 04 hr 05 min 55 sec)
Heartbeat CPU 0 instructions: 510000098 cycles: 1084125329 heartbeat IPC: 0.3856 cumulative IPC: 0.3888 (Simulation time: 04 hr 10 min 49 sec)
Heartbeat CPU 0 instructions: 520000102 cycles: 1110050987 heartbeat IPC: 0.3857 cumulative IPC: 0.3887 (Simulation time: 04 hr 15 min 47 sec)
Heartbeat CPU 0 instructions: 530000102 cycles: 1136003070 heartbeat IPC: 0.3853 cumulative IPC: 0.3887 (Simulation time: 04 hr 20 min 50 sec)
Heartbeat CPU 0 instructions: 540000106 cycles: 1161891786 heartbeat IPC: 0.3863 cumulative IPC: 0.3886 (Simulation time: 04 hr 25 min 43 sec)
Heartbeat CPU 0 instructions: 550000106 cycles: 1187825229 heartbeat IPC: 0.3856 cumulative IPC: 0.3885 (Simulation time: 04 hr 30 min 36 sec)
Heartbeat CPU 0 instructions: 560000108 cycles: 1213672918 heartbeat IPC: 0.3869 cumulative IPC: 0.3885 (Simulation time: 04 hr 35 min 25 sec)
Heartbeat CPU 0 instructions: 570000109 cycles: 1239609200 heartbeat IPC: 0.3856 cumulative IPC: 0.3884 (Simulation time: 04 hr 40 min 14 sec)
Heartbeat CPU 0 instructions: 580000112 cycles: 1265427461 heartbeat IPC: 0.3873 cumulative IPC: 0.3884 (Simulation time: 04 hr 45 min 12 sec)
Heartbeat CPU 0 instructions: 590000113 cycles: 1291261382 heartbeat IPC: 0.3871 cumulative IPC: 0.3884 (Simulation time: 04 hr 50 min 21 sec)
Simulation finished CPU 0 instructions: 500000003 cycles: 1287508741 cumulative IPC: 0.3883 (Simulation time: 04 hr 54 min 56 sec)
Simulation complete CPU 0 instructions: 500000003 cycles: 1287508741 cumulative IPC: 0.3883 (Simulation time: 04 hr 54 min 56 sec)

ChampSim completed all CPUs

=== Simulation ===
CPU 0 runs traces/T4.xz

Region of Interest Statistics

CPU 0 cumulative IPC: 0.3883 instructions: 500000003 cycles: 1287508741
CPU 0 Branch Prediction Accuracy: 99.63% MPKI: 0.06786 Average ROB Occupancy at Mispredict: 76.51
Branch type MPKI
BRANCH_DIRECT_JUMP: 0.000178
BRANCH_INDIRECT: 0
BRANCH_CONDITIONAL: 0.05161
BRANCH_DIRECT_CALL: 3.2e-05
BRANCH_INDIRECT_CALL: 0
BRANCH_RETURN: 0.01604

cpu0->cpu0_STLB TOTAL        ACCESS:     116437 HIT:      48251 MISS:      68186 MSHR_MERGE:          0
cpu0->cpu0_STLB LOAD         ACCESS:     116437 HIT:      48251 MISS:      68186 MSHR_MERGE:          0
cpu0->cpu0_STLB RFO          ACCESS:          0 HIT:          0 MISS:          0 MSHR_MERGE:          0
cpu0->cpu0_STLB PREFETCH     ACCESS:          0 HIT:          0 MISS:          0 MSHR_MERGE:          0
cpu0->cpu0_STLB WRITE        ACCESS:          0 HIT:          0 MISS:          0 MSHR_MERGE:          0
cpu0->cpu0_STLB TRANSLATION  ACCESS:          0 HIT:          0 MISS:          0 MSHR_MERGE:          0
cpu0->cpu0_STLB PREFETCH REQUESTED:          0 ISSUED:          0 USEFUL:          0 USELESS:          0
cpu0->cpu0_STLB AVERAGE MISS LATENCY: 662 cycles
cpu0->cpu0_L2C TOTAL        ACCESS:   11017709 HIT:    6187765 MISS:    4829944 MSHR_MERGE:          0
cpu0->cpu0_L2C LOAD         ACCESS:    6564966 HIT:    1812709 MISS:    4752257 MSHR_MERGE:          0
cpu0->cpu0_L2C RFO          ACCESS:       9630 HIT:       9001 MISS:        629 MSHR_MERGE:          0
cpu0->cpu0_L2C PREFETCH     ACCESS:          0 HIT:          0 MISS:          0 MSHR_MERGE:          0
cpu0->cpu0_L2C WRITE        ACCESS:    4364158 HIT:    4364158 MISS:          0 MSHR_MERGE:          0
cpu0->cpu0_L2C TRANSLATION  ACCESS:      78955 HIT:       1897 MISS:      77058 MSHR_MERGE:          0
cpu0->cpu0_L2C PREFETCH REQUESTED:          0 ISSUED:          0 USEFUL:          0 USELESS:          0
cpu0->cpu0_L2C AVERAGE MISS LATENCY: 231.9 cycles
cpu0->cpu0_L1I TOTAL        ACCESS:   93237744 HIT:   93237336 MISS:        408 MSHR_MERGE:        131
cpu0->cpu0_L1I LOAD         ACCESS:   93237744 HIT:   93237336 MISS:        408 MSHR_MERGE:        131
cpu0->cpu0_L1I RFO          ACCESS:          0 HIT:          0 MISS:          0 MSHR_MERGE:          0
cpu0->cpu0_L1I PREFETCH     ACCESS:          0 HIT:          0 MISS:          0 MSHR_MERGE:          0
cpu0->cpu0_L1I WRITE        ACCESS:          0 HIT:          0 MISS:          0 MSHR_MERGE:          0
cpu0->cpu0_L1I TRANSLATION  ACCESS:          0 HIT:          0 MISS:          0 MSHR_MERGE:          0
cpu0->cpu0_L1I PREFETCH REQUESTED:          0 ISSUED:          0 USEFUL:          0 USELESS:          0
cpu0->cpu0_L1I AVERAGE MISS LATENCY: 227.8 cycles
cpu0->cpu0_L1D TOTAL        ACCESS:  158242148 HIT:  130806900 MISS:   27435248 MSHR_MERGE:   20781974
cpu0->cpu0_L1D LOAD         ACCESS:  122901202 HIT:   95575071 MISS:   27326131 MSHR_MERGE:   20761442
cpu0->cpu0_L1D RFO          ACCESS:          0 HIT:          0 MISS:          0 MSHR_MERGE:          0
cpu0->cpu0_L1D PREFETCH     ACCESS:          0 HIT:          0 MISS:          0 MSHR_MERGE:          0
cpu0->cpu0_L1D WRITE        ACCESS:   35204338 HIT:   35174177 MISS:      30161 MSHR_MERGE:      20531
cpu0->cpu0_L1D TRANSLATION  ACCESS:     136608 HIT:      57652 MISS:      78956 MSHR_MERGE:          1
cpu0->cpu0_L1D PREFETCH REQUESTED:          0 ISSUED:          0 USEFUL:          0 USELESS:          0
cpu0->cpu0_L1D AVERAGE MISS LATENCY: 177 cycles
cpu0->cpu0_ITLB TOTAL        ACCESS:   75738242 HIT:   75738217 MISS:         25 MSHR_MERGE:         14
cpu0->cpu0_ITLB LOAD         ACCESS:   75738242 HIT:   75738217 MISS:         25 MSHR_MERGE:         14
cpu0->cpu0_ITLB RFO          ACCESS:          0 HIT:          0 MISS:          0 MSHR_MERGE:          0
cpu0->cpu0_ITLB PREFETCH     ACCESS:          0 HIT:          0 MISS:          0 MSHR_MERGE:          0
cpu0->cpu0_ITLB WRITE        ACCESS:          0 HIT:          0 MISS:          0 MSHR_MERGE:          0
cpu0->cpu0_ITLB TRANSLATION  ACCESS:          0 HIT:          0 MISS:          0 MSHR_MERGE:          0
cpu0->cpu0_ITLB PREFETCH REQUESTED:          0 ISSUED:          0 USEFUL:          0 USELESS:          0
cpu0->cpu0_ITLB AVERAGE MISS LATENCY: 824.3 cycles
cpu0->cpu0_DTLB TOTAL        ACCESS:  148208826 HIT:  147773122 MISS:     435704 MSHR_MERGE:     319278
cpu0->cpu0_DTLB LOAD         ACCESS:  148208826 HIT:  147773122 MISS:     435704 MSHR_MERGE:     319278
cpu0->cpu0_DTLB RFO          ACCESS:          0 HIT:          0 MISS:          0 MSHR_MERGE:          0
cpu0->cpu0_DTLB PREFETCH     ACCESS:          0 HIT:          0 MISS:          0 MSHR_MERGE:          0
cpu0->cpu0_DTLB WRITE        ACCESS:          0 HIT:          0 MISS:          0 MSHR_MERGE:          0
cpu0->cpu0_DTLB TRANSLATION  ACCESS:          0 HIT:          0 MISS:          0 MSHR_MERGE:          0
cpu0->cpu0_DTLB PREFETCH REQUESTED:          0 ISSUED:          0 USEFUL:          0 USELESS:          0
cpu0->cpu0_DTLB AVERAGE MISS LATENCY: 393.2 cycles
cpu0->LLC TOTAL        ACCESS:    9184947 HIT:       3213 MISS:    9181734 MSHR_MERGE:          0
cpu0->LLC LOAD         ACCESS:    4752257 HIT:       1082 MISS:    4751175 MSHR_MERGE:          0
cpu0->LLC RFO          ACCESS:        629 HIT:        412 MISS:        217 MSHR_MERGE:          0
cpu0->LLC PREFETCH     ACCESS:          0 HIT:          0 MISS:          0 MSHR_MERGE:          0
cpu0->LLC WRITE        ACCESS:    4355003 HIT:       1713 MISS:    4353290 MSHR_MERGE:          0
cpu0->LLC TRANSLATION  ACCESS:      77058 HIT:          6 MISS:      77052 MSHR_MERGE:          0
cpu0->LLC PREFETCH REQUESTED:          0 ISSUED:          0 USEFUL:          0 USELESS:          0
cpu0->LLC AVERAGE MISS LATENCY: 117.8 cycles

DRAM Statistics

Channel 0 RQ ROW_BUFFER_HIT:      60361
  ROW_BUFFER_MISS:    4768044
  AVG DBUS CONGESTED CYCLE: 10.92
Channel 0 WQ ROW_BUFFER_HIT:    1790679
  ROW_BUFFER_MISS:    2564128
  FULL:          0
Channel 0 REFRESHES ISSUED:     107293
