[VMEM] WARNING: physical memory size is smaller than virtual memory size.

*** ChampSim Multicore Out-of-Order Simulator ***
Warmup Instructions: 100000000
Simulation Instructions: 500000000
Number of CPUs: 1
Page size: 4096

Off-chip DRAM Size: 16 GiB Channels: 1 Width: 64-bit Data Rate: 3205 MT/s
Heartbeat CPU 0 instructions: 10000001 cycles: 2965159 heartbeat IPC: 3.373 cumulative IPC: 3.373 (Simulation time: 00 hr 01 min 07 sec)
Heartbeat CPU 0 instructions: 20000002 cycles: 5929682 heartbeat IPC: 3.373 cumulative IPC: 3.373 (Simulation time: 00 hr 02 min 25 sec)
Heartbeat CPU 0 instructions: 30000003 cycles: 8887937 heartbeat IPC: 3.38 cumulative IPC: 3.375 (Simulation time: 00 hr 03 min 43 sec)
Heartbeat CPU 0 instructions: 40000005 cycles: 11845857 heartbeat IPC: 3.381 cumulative IPC: 3.377 (Simulation time: 00 hr 05 min 02 sec)
Heartbeat CPU 0 instructions: 50000008 cycles: 14808328 heartbeat IPC: 3.376 cumulative IPC: 3.376 (Simulation time: 00 hr 06 min 19 sec)
Heartbeat CPU 0 instructions: 60000011 cycles: 17693130 heartbeat IPC: 3.466 cumulative IPC: 3.391 (Simulation time: 00 hr 07 min 37 sec)
Heartbeat CPU 0 instructions: 70000011 cycles: 20528733 heartbeat IPC: 3.527 cumulative IPC: 3.41 (Simulation time: 00 hr 08 min 57 sec)
Heartbeat CPU 0 instructions: 80000011 cycles: 23364026 heartbeat IPC: 3.527 cumulative IPC: 3.424 (Simulation time: 00 hr 10 min 22 sec)
Heartbeat CPU 0 instructions: 90000011 cycles: 26201355 heartbeat IPC: 3.524 cumulative IPC: 3.435 (Simulation time: 00 hr 11 min 40 sec)
Warmup finished CPU 0 instructions: 100000001 cycles: 29037785 cumulative IPC: 3.444 (Simulation time: 00 hr 13 min 01 sec)
Warmup complete CPU 0 instructions: 100000001 cycles: 29037785 cumulative IPC: 3.444 (Simulation time: 00 hr 13 min 01 sec)
Heartbeat CPU 0 instructions: 100000011 cycles: 29037787 heartbeat IPC: 3.526 cumulative IPC: 5 (Simulation time: 00 hr 13 min 01 sec)
Heartbeat CPU 0 instructions: 110000014 cycles: 38802357 heartbeat IPC: 1.024 cumulative IPC: 1.024 (Simulation time: 00 hr 15 min 53 sec)
Heartbeat CPU 0 instructions: 120000014 cycles: 48851093 heartbeat IPC: 0.9952 cumulative IPC: 1.009 (Simulation time: 00 hr 18 min 43 sec)
Heartbeat CPU 0 instructions: 130000016 cycles: 58382112 heartbeat IPC: 1.049 cumulative IPC: 1.022 (Simulation time: 00 hr 21 min 27 sec)
Heartbeat CPU 0 instructions: 140000017 cycles: 67596055 heartbeat IPC: 1.085 cumulative IPC: 1.037 (Simulation time: 00 hr 24 min 03 sec)
Heartbeat CPU 0 instructions: 150000019 cycles: 78640658 heartbeat IPC: 0.9054 cumulative IPC: 1.008 (Simulation time: 00 hr 27 min 04 sec)
Heartbeat CPU 0 instructions: 160000021 cycles: 89649894 heartbeat IPC: 0.9083 cumulative IPC: 0.9899 (Simulation time: 00 hr 29 min 58 sec)
Heartbeat CPU 0 instructions: 170000025 cycles: 99289795 heartbeat IPC: 1.037 cumulative IPC: 0.9964 (Simulation time: 00 hr 32 min 41 sec)
Heartbeat CPU 0 instructions: 180000029 cycles: 108095604 heartbeat IPC: 1.136 cumulative IPC: 1.012 (Simulation time: 00 hr 35 min 13 sec)
Heartbeat CPU 0 instructions: 190000029 cycles: 118191663 heartbeat IPC: 0.9905 cumulative IPC: 1.009 (Simulation time: 00 hr 38 min 03 sec)
Heartbeat CPU 0 instructions: 200000029 cycles: 127302342 heartbeat IPC: 1.098 cumulative IPC: 1.018 (Simulation time: 00 hr 40 min 40 sec)
Heartbeat CPU 0 instructions: 210000030 cycles: 138138918 heartbeat IPC: 0.9228 cumulative IPC: 1.008 (Simulation time: 00 hr 43 min 39 sec)
Heartbeat CPU 0 instructions: 220000030 cycles: 147784841 heartbeat IPC: 1.037 cumulative IPC: 1.011 (Simulation time: 00 hr 46 min 16 sec)
Heartbeat CPU 0 instructions: 230000032 cycles: 157009627 heartbeat IPC: 1.084 cumulative IPC: 1.016 (Simulation time: 00 hr 48 min 56 sec)
Heartbeat CPU 0 instructions: 240000034 cycles: 167238769 heartbeat IPC: 0.9776 cumulative IPC: 1.013 (Simulation time: 00 hr 51 min 38 sec)
Heartbeat CPU 0 instructions: 250000034 cycles: 177244820 heartbeat IPC: 0.9994 cumulative IPC: 1.012 (Simulation time: 00 hr 54 min 17 sec)
Heartbeat CPU 0 instructions: 260000038 cycles: 188095311 heartbeat IPC: 0.9216 cumulative IPC: 1.006 (Simulation time: 00 hr 57 min 04 sec)
Heartbeat CPU 0 instructions: 270000041 cycles: 197337772 heartbeat IPC: 1.082 cumulative IPC: 1.01 (Simulation time: 00 hr 59 min 32 sec)
Heartbeat CPU 0 instructions: 280000041 cycles: 206910297 heartbeat IPC: 1.045 cumulative IPC: 1.012 (Simulation time: 01 hr 02 min 04 sec)
Heartbeat CPU 0 instructions: 290000044 cycles: 217375425 heartbeat IPC: 0.9556 cumulative IPC: 1.009 (Simulation time: 01 hr 04 min 46 sec)
Heartbeat CPU 0 instructions: 300000044 cycles: 227493840 heartbeat IPC: 0.9883 cumulative IPC: 1.008 (Simulation time: 01 hr 07 min 24 sec)
Heartbeat CPU 0 instructions: 310000045 cycles: 236961819 heartbeat IPC: 1.056 cumulative IPC: 1.01 (Simulation time: 01 hr 09 min 56 sec)
Heartbeat CPU 0 instructions: 320000048 cycles: 248563040 heartbeat IPC: 0.862 cumulative IPC: 1.002 (Simulation time: 01 hr 12 min 49 sec)
Heartbeat CPU 0 instructions: 330000049 cycles: 258163242 heartbeat IPC: 1.042 cumulative IPC: 1.004 (Simulation time: 01 hr 15 min 23 sec)
Heartbeat CPU 0 instructions: 340000052 cycles: 269456721 heartbeat IPC: 0.8855 cumulative IPC: 0.9983 (Simulation time: 01 hr 18 min 14 sec)
Heartbeat CPU 0 instructions: 350000052 cycles: 279802723 heartbeat IPC: 0.9666 cumulative IPC: 0.9969 (Simulation time: 01 hr 20 min 56 sec)
Heartbeat CPU 0 instructions: 360000056 cycles: 289486884 heartbeat IPC: 1.033 cumulative IPC: 0.9983 (Simulation time: 01 hr 23 min 28 sec)
Heartbeat CPU 0 instructions: 370000056 cycles: 299077733 heartbeat IPC: 1.043 cumulative IPC: 0.9999 (Simulation time: 01 hr 25 min 59 sec)
Heartbeat CPU 0 instructions: 380000058 cycles: 308252400 heartbeat IPC: 1.09 cumulative IPC: 1.003 (Simulation time: 01 hr 28 min 27 sec)
Heartbeat CPU 0 instructions: 390000058 cycles: 317617452 heartbeat IPC: 1.068 cumulative IPC: 1.005 (Simulation time: 01 hr 30 min 57 sec)
Heartbeat CPU 0 instructions: 400000062 cycles: 327177218 heartbeat IPC: 1.046 cumulative IPC: 1.006 (Simulation time: 01 hr 33 min 30 sec)
Heartbeat CPU 0 instructions: 410000062 cycles: 337619566 heartbeat IPC: 0.9576 cumulative IPC: 1.005 (Simulation time: 01 hr 36 min 12 sec)
Heartbeat CPU 0 instructions: 420000065 cycles: 347810514 heartbeat IPC: 0.9813 cumulative IPC: 1.004 (Simulation time: 01 hr 38 min 52 sec)
Heartbeat CPU 0 instructions: 430000066 cycles: 357632999 heartbeat IPC: 1.018 cumulative IPC: 1.004 (Simulation time: 01 hr 41 min 27 sec)
Heartbeat CPU 0 instructions: 440000068 cycles: 367887074 heartbeat IPC: 0.9752 cumulative IPC: 1.003 (Simulation time: 01 hr 44 min 07 sec)
Heartbeat CPU 0 instructions: 450000070 cycles: 377253524 heartbeat IPC: 1.068 cumulative IPC: 1.005 (Simulation time: 01 hr 46 min 37 sec)
Heartbeat CPU 0 instructions: 460000072 cycles: 388136833 heartbeat IPC: 0.9188 cumulative IPC: 1.003 (Simulation time: 01 hr 49 min 24 sec)
Heartbeat CPU 0 instructions: 470000073 cycles: 397581435 heartbeat IPC: 1.059 cumulative IPC: 1.004 (Simulation time: 01 hr 51 min 54 sec)
Heartbeat CPU 0 instructions: 480000074 cycles: 408440578 heartbeat IPC: 0.9209 cumulative IPC: 1.002 (Simulation time: 01 hr 54 min 42 sec)
Heartbeat CPU 0 instructions: 490000074 cycles: 418691539 heartbeat IPC: 0.9755 cumulative IPC: 1.001 (Simulation time: 01 hr 57 min 20 sec)
Heartbeat CPU 0 instructions: 500000075 cycles: 430301814 heartbeat IPC: 0.8613 cumulative IPC: 0.9969 (Simulation time: 02 hr 00 min 15 sec)
Heartbeat CPU 0 instructions: 510000075 cycles: 439734996 heartbeat IPC: 1.06 cumulative IPC: 0.9983 (Simulation time: 02 hr 02 min 46 sec)
Heartbeat CPU 0 instructions: 520000076 cycles: 449444332 heartbeat IPC: 1.03 cumulative IPC: 0.999 (Simulation time: 02 hr 05 min 20 sec)
Heartbeat CPU 0 instructions: 530000079 cycles: 458990247 heartbeat IPC: 1.048 cumulative IPC: 1 (Simulation time: 02 hr 08 min 09 sec)
Heartbeat CPU 0 instructions: 540000083 cycles: 468280028 heartbeat IPC: 1.076 cumulative IPC: 1.002 (Simulation time: 02 hr 10 min 52 sec)
Heartbeat CPU 0 instructions: 550000083 cycles: 478028944 heartbeat IPC: 1.026 cumulative IPC: 1.002 (Simulation time: 02 hr 13 min 32 sec)
Heartbeat CPU 0 instructions: 560000084 cycles: 488371321 heartbeat IPC: 0.9669 cumulative IPC: 1.001 (Simulation time: 02 hr 16 min 13 sec)
Heartbeat CPU 0 instructions: 570000084 cycles: 498100007 heartbeat IPC: 1.028 cumulative IPC: 1.002 (Simulation time: 02 hr 18 min 48 sec)
Heartbeat CPU 0 instructions: 580000087 cycles: 507701219 heartbeat IPC: 1.042 cumulative IPC: 1.003 (Simulation time: 02 hr 21 min 22 sec)
Heartbeat CPU 0 instructions: 590000089 cycles: 517920776 heartbeat IPC: 0.9785 cumulative IPC: 1.002 (Simulation time: 02 hr 24 min 03 sec)
Simulation finished CPU 0 instructions: 500000002 cycles: 498186185 cumulative IPC: 1.004 (Simulation time: 02 hr 26 min 21 sec)
Simulation complete CPU 0 instructions: 500000002 cycles: 498186185 cumulative IPC: 1.004 (Simulation time: 02 hr 26 min 21 sec)

ChampSim completed all CPUs

=== Simulation ===
CPU 0 runs traces/T3.xz

Region of Interest Statistics

CPU 0 cumulative IPC: 1.004 instructions: 500000002 cycles: 498186185
CPU 0 Branch Prediction Accuracy: 99.85% MPKI: 0.001804 Average ROB Occupancy at Mispredict: 280.9
Branch type MPKI
BRANCH_DIRECT_JUMP: 2e-06
BRANCH_INDIRECT: 1e-05
BRANCH_CONDITIONAL: 0.001792
BRANCH_DIRECT_CALL: 0
BRANCH_INDIRECT_CALL: 0
BRANCH_RETURN: 0

cpu0->cpu0_STLB TOTAL        ACCESS:   37705850 HIT:   37644979 MISS:      60871 MSHR_MERGE:          0
cpu0->cpu0_STLB LOAD         ACCESS:   37705850 HIT:   37644979 MISS:      60871 MSHR_MERGE:          0
cpu0->cpu0_STLB RFO          ACCESS:          0 HIT:          0 MISS:          0 MSHR_MERGE:          0
cpu0->cpu0_STLB PREFETCH     ACCESS:          0 HIT:          0 MISS:          0 MSHR_MERGE:          0
cpu0->cpu0_STLB WRITE        ACCESS:          0 HIT:          0 MISS:          0 MSHR_MERGE:          0
cpu0->cpu0_STLB TRANSLATION  ACCESS:          0 HIT:          0 MISS:          0 MSHR_MERGE:          0
cpu0->cpu0_STLB PREFETCH REQUESTED:          0 ISSUED:          0 USEFUL:          0 USELESS:          0
cpu0->cpu0_STLB AVERAGE MISS LATENCY: 716.4 cycles
cpu0->cpu0_L2C TOTAL        ACCESS:   62972202 HIT:   56443275 MISS:    6528927 MSHR_MERGE:          0
cpu0->cpu0_L2C LOAD         ACCESS:   54363852 HIT:   48183573 MISS:    6180279 MSHR_MERGE:          0
cpu0->cpu0_L2C RFO          ACCESS:    4061238 HIT:    3851166 MISS:     210072 MSHR_MERGE:          0
cpu0->cpu0_L2C PREFETCH     ACCESS:          0 HIT:          0 MISS:          0 MSHR_MERGE:          0
cpu0->cpu0_L2C WRITE        ACCESS:    4392167 HIT:    4391670 MISS:        497 MSHR_MERGE:          0
cpu0->cpu0_L2C TRANSLATION  ACCESS:     154945 HIT:      16866 MISS:     138079 MSHR_MERGE:          0
cpu0->cpu0_L2C PREFETCH REQUESTED:          0 ISSUED:          0 USEFUL:          0 USELESS:          0
cpu0->cpu0_L2C AVERAGE MISS LATENCY: 233.2 cycles
cpu0->cpu0_L1I TOTAL        ACCESS:   97606802 HIT:   97606802 MISS:          0 MSHR_MERGE:          0
cpu0->cpu0_L1I LOAD         ACCESS:   97606802 HIT:   97606802 MISS:          0 MSHR_MERGE:          0
cpu0->cpu0_L1I RFO          ACCESS:          0 HIT:          0 MISS:          0 MSHR_MERGE:          0
cpu0->cpu0_L1I PREFETCH     ACCESS:          0 HIT:          0 MISS:          0 MSHR_MERGE:          0
cpu0->cpu0_L1I WRITE        ACCESS:          0 HIT:          0 MISS:          0 MSHR_MERGE:          0
cpu0->cpu0_L1I TRANSLATION  ACCESS:          0 HIT:          0 MISS:          0 MSHR_MERGE:          0
cpu0->cpu0_L1I PREFETCH REQUESTED:          0 ISSUED:          0 USEFUL:          0 USELESS:          0
cpu0->cpu0_L1I AVERAGE MISS LATENCY: - cycles
cpu0->cpu0_L1D TOTAL        ACCESS:  153884604 HIT:   87380567 MISS:   66504037 MSHR_MERGE:    7795044
cpu0->cpu0_L1D LOAD         ACCESS:   96602948 HIT:   34731493 MISS:   61871455 MSHR_MERGE:    7381009
cpu0->cpu0_L1D RFO          ACCESS:          0 HIT:          0 MISS:          0 MSHR_MERGE:          0
cpu0->cpu0_L1D PREFETCH     ACCESS:          0 HIT:          0 MISS:          0 MSHR_MERGE:          0
cpu0->cpu0_L1D WRITE        ACCESS:   57125861 HIT:   52648526 MISS:    4477335 MSHR_MERGE:     413733
cpu0->cpu0_L1D TRANSLATION  ACCESS:     155795 HIT:        548 MISS:     155247 MSHR_MERGE:        302
cpu0->cpu0_L1D PREFETCH REQUESTED:          0 ISSUED:          0 USEFUL:          0 USELESS:          0
cpu0->cpu0_L1D AVERAGE MISS LATENCY: 34.6 cycles
cpu0->cpu0_ITLB TOTAL        ACCESS:   78612260 HIT:   78612260 MISS:          0 MSHR_MERGE:          0
cpu0->cpu0_ITLB LOAD         ACCESS:   78612260 HIT:   78612260 MISS:          0 MSHR_MERGE:          0
cpu0->cpu0_ITLB RFO          ACCESS:          0 HIT:          0 MISS:          0 MSHR_MERGE:          0
cpu0->cpu0_ITLB PREFETCH     ACCESS:          0 HIT:          0 MISS:          0 MSHR_MERGE:          0
cpu0->cpu0_ITLB WRITE        ACCESS:          0 HIT:          0 MISS:          0 MSHR_MERGE:          0
cpu0->cpu0_ITLB TRANSLATION  ACCESS:          0 HIT:          0 MISS:          0 MSHR_MERGE:          0
cpu0->cpu0_ITLB PREFETCH REQUESTED:          0 ISSUED:          0 USEFUL:          0 USELESS:          0
cpu0->cpu0_ITLB AVERAGE MISS LATENCY: - cycles
cpu0->cpu0_DTLB TOTAL        ACCESS:  142313970 HIT:   91844664 MISS:   50469306 MSHR_MERGE:   12763456
cpu0->cpu0_DTLB LOAD         ACCESS:  142313970 HIT:   91844664 MISS:   50469306 MSHR_MERGE:   12763456
cpu0->cpu0_DTLB RFO          ACCESS:          0 HIT:          0 MISS:          0 MSHR_MERGE:          0
cpu0->cpu0_DTLB PREFETCH     ACCESS:          0 HIT:          0 MISS:          0 MSHR_MERGE:          0
cpu0->cpu0_DTLB WRITE        ACCESS:          0 HIT:          0 MISS:          0 MSHR_MERGE:          0
cpu0->cpu0_DTLB TRANSLATION  ACCESS:          0 HIT:          0 MISS:          0 MSHR_MERGE:          0
cpu0->cpu0_DTLB PREFETCH REQUESTED:          0 ISSUED:          0 USEFUL:          0 USELESS:          0
cpu0->cpu0_DTLB AVERAGE MISS LATENCY: 6.198 cycles
cpu0->LLC TOTAL        ACCESS:    7124700 HIT:     123475 MISS:    7001225 MSHR_MERGE:          0
cpu0->LLC LOAD         ACCESS:    6180276 HIT:      17577 MISS:    6162699 MSHR_MERGE:          0
cpu0->LLC RFO          ACCESS:     208855 HIT:      89606 MISS:     119249 MSHR_MERGE:          0
cpu0->LLC PREFETCH     ACCESS:          0 HIT:          0 MISS:          0 MSHR_MERGE:          0
cpu0->LLC WRITE        ACCESS:     597490 HIT:      16194 MISS:     581296 MSHR_MERGE:          0
cpu0->LLC TRANSLATION  ACCESS:     138079 HIT:         98 MISS:     137981 MSHR_MERGE:          0
cpu0->LLC PREFETCH REQUESTED:          0 ISSUED:          0 USEFUL:          0 USELESS:          0
cpu0->LLC AVERAGE MISS LATENCY: 203.3 cycles

DRAM Statistics

Channel 0 RQ ROW_BUFFER_HIT:     260187
  ROW_BUFFER_MISS:    6158379
  AVG DBUS CONGESTED CYCLE: 9.805
Channel 0 WQ ROW_BUFFER_HIT:      97360
  ROW_BUFFER_MISS:     495272
  FULL:          0
Channel 0 REFRESHES ISSUED:      41516
