[VMEM] WARNING: physical memory size is smaller than virtual memory size.
WARNING: option --warmup_instructions is deprecated. Use --warmup-instructions instead.
WARNING: option --simulation_instructions is deprecated. Use --simulation-instructions instead.

*** ChampSim Multicore Out-of-Order Simulator ***
Warmup Instructions: 20000000
Simulation Instructions: 50000000
Number of CPUs: 1
Page size: 8192

Off-chip DRAM Size: 16 GiB Channels: 1 Width: 64-bit Data Rate: 3205 MT/s
Heartbeat CPU 0 instructions: 10000001 cycles: 4633175 heartbeat IPC: 2.158 cumulative IPC: 2.158 (Simulation time: 00 hr 00 min 56 sec)
Heartbeat CPU 0 instructions: 20000002 cycles: 9212897 heartbeat IPC: 2.184 cumulative IPC: 2.171 (Simulation time: 00 hr 01 min 50 sec)
Warmup finished CPU 0 instructions: 20000002 cycles: 9212897 cumulative IPC: 2.171 (Simulation time: 00 hr 01 min 50 sec)
Warmup complete CPU 0 instructions: 20000002 cycles: 9212897 cumulative IPC: 2.171 (Simulation time: 00 hr 01 min 50 sec)
Heartbeat CPU 0 instructions: 30000005 cycles: 43002866 heartbeat IPC: 0.2959 cumulative IPC: 0.2959 (Simulation time: 00 hr 04 min 48 sec)
Heartbeat CPU 0 instructions: 40000005 cycles: 76251123 heartbeat IPC: 0.3008 cumulative IPC: 0.2983 (Simulation time: 00 hr 07 min 44 sec)
Heartbeat CPU 0 instructions: 50000007 cycles: 109766214 heartbeat IPC: 0.2984 cumulative IPC: 0.2983 (Simulation time: 00 hr 10 min 38 sec)
Heartbeat CPU 0 instructions: 60000007 cycles: 142786163 heartbeat IPC: 0.3028 cumulative IPC: 0.2995 (Simulation time: 00 hr 13 min 33 sec)
Simulation finished CPU 0 instructions: 50000002 cycles: 166999986 cumulative IPC: 0.2994 (Simulation time: 00 hr 16 min 31 sec)
Simulation complete CPU 0 instructions: 50000002 cycles: 166999986 cumulative IPC: 0.2994 (Simulation time: 00 hr 16 min 31 sec)

ChampSim completed all CPUs

=== Simulation ===
CPU 0 runs traces/605.mcf_s-1152B.champsimtrace.xz

Region of Interest Statistics

CPU 0 cumulative IPC: 0.2994 instructions: 50000002 cycles: 166999986
CPU 0 Branch Prediction Accuracy: 90.19% MPKI: 24.48 Average ROB Occupancy at Mispredict: 21.33
Branch type MPKI
BRANCH_DIRECT_JUMP: 0.2057
BRANCH_INDIRECT: 0
BRANCH_CONDITIONAL: 24.27
BRANCH_DIRECT_CALL: 0
BRANCH_INDIRECT_CALL: 0.0036
BRANCH_RETURN: 2e-05

cpu0->cpu0_STLB TOTAL        ACCESS:    1006222 HIT:    1000465 MISS:       5757 MSHR_MERGE:          0
cpu0->cpu0_STLB LOAD         ACCESS:    1006222 HIT:    1000465 MISS:       5757 MSHR_MERGE:          0
cpu0->cpu0_STLB RFO          ACCESS:          0 HIT:          0 MISS:          0 MSHR_MERGE:          0
cpu0->cpu0_STLB PREFETCH     ACCESS:          0 HIT:          0 MISS:          0 MSHR_MERGE:          0
cpu0->cpu0_STLB WRITE        ACCESS:          0 HIT:          0 MISS:          0 MSHR_MERGE:          0
cpu0->cpu0_STLB TRANSLATION  ACCESS:          0 HIT:          0 MISS:          0 MSHR_MERGE:          0
cpu0->cpu0_STLB PREFETCH REQUESTED:          0 ISSUED:          0 USEFUL:          0 USELESS:          0
cpu0->cpu0_STLB AVERAGE MISS LATENCY: 693.4 cycles
cpu0->cpu0_L2C TOTAL        ACCESS:    5745664 HIT:    2889656 MISS:    2856008 MSHR_MERGE:     542165
cpu0->cpu0_L2C LOAD         ACCESS:    2552728 HIT:    1016502 MISS:    1536226 MSHR_MERGE:      33060
cpu0->cpu0_L2C RFO          ACCESS:     187386 HIT:      52184 MISS:     135202 MSHR_MERGE:          0
cpu0->cpu0_L2C PREFETCH     ACCESS:    2731417 HIT:    1553962 MISS:    1177455 MSHR_MERGE:     509105
cpu0->cpu0_L2C WRITE        ACCESS:     265785 HIT:     265466 MISS:        319 MSHR_MERGE:          0
cpu0->cpu0_L2C TRANSLATION  ACCESS:       8348 HIT:       1542 MISS:       6806 MSHR_MERGE:          0
cpu0->cpu0_L2C PREFETCH REQUESTED:    2731478 ISSUED:    2731417 USEFUL:     633903 USELESS:      34440
cpu0->cpu0_L2C AVERAGE MISS LATENCY: 67.11 cycles
cpu0->cpu0_L1I TOTAL        ACCESS:     434531 HIT:     434531 MISS:          0 MSHR_MERGE:          0
cpu0->cpu0_L1I LOAD         ACCESS:     434531 HIT:     434531 MISS:          0 MSHR_MERGE:          0
cpu0->cpu0_L1I RFO          ACCESS:          0 HIT:          0 MISS:          0 MSHR_MERGE:          0
cpu0->cpu0_L1I PREFETCH     ACCESS:          0 HIT:          0 MISS:          0 MSHR_MERGE:          0
cpu0->cpu0_L1I WRITE        ACCESS:          0 HIT:          0 MISS:          0 MSHR_MERGE:          0
cpu0->cpu0_L1I TRANSLATION  ACCESS:          0 HIT:          0 MISS:          0 MSHR_MERGE:          0
cpu0->cpu0_L1I PREFETCH REQUESTED:          0 ISSUED:          0 USEFUL:          0 USELESS:          0
cpu0->cpu0_L1I AVERAGE MISS LATENCY: - cycles
cpu0->cpu0_L1D TOTAL        ACCESS:   17982475 HIT:   14406016 MISS:    3576459 MSHR_MERGE:     827994
cpu0->cpu0_L1D LOAD         ACCESS:   12806554 HIT:    9720281 MISS:    3086273 MSHR_MERGE:     533545
cpu0->cpu0_L1D RFO          ACCESS:          0 HIT:          0 MISS:          0 MSHR_MERGE:          0
cpu0->cpu0_L1D PREFETCH     ACCESS:          0 HIT:          0 MISS:          0 MSHR_MERGE:          0
cpu0->cpu0_L1D WRITE        ACCESS:    5164311 HIT:    4682473 MISS:     481838 MSHR_MERGE:     294449
cpu0->cpu0_L1D TRANSLATION  ACCESS:      11610 HIT:       3262 MISS:       8348 MSHR_MERGE:          0
cpu0->cpu0_L1D PREFETCH REQUESTED:          0 ISSUED:          0 USEFUL:          0 USELESS:          0
cpu0->cpu0_L1D AVERAGE MISS LATENCY: 49.6 cycles
cpu0->cpu0_ITLB TOTAL        ACCESS:     402862 HIT:     402862 MISS:          0 MSHR_MERGE:          0
cpu0->cpu0_ITLB LOAD         ACCESS:     402862 HIT:     402862 MISS:          0 MSHR_MERGE:          0
cpu0->cpu0_ITLB RFO          ACCESS:          0 HIT:          0 MISS:          0 MSHR_MERGE:          0
cpu0->cpu0_ITLB PREFETCH     ACCESS:          0 HIT:          0 MISS:          0 MSHR_MERGE:          0
cpu0->cpu0_ITLB WRITE        ACCESS:          0 HIT:          0 MISS:          0 MSHR_MERGE:          0
cpu0->cpu0_ITLB TRANSLATION  ACCESS:          0 HIT:          0 MISS:          0 MSHR_MERGE:          0
cpu0->cpu0_ITLB PREFETCH REQUESTED:          0 ISSUED:          0 USEFUL:          0 USELESS:          0
cpu0->cpu0_ITLB AVERAGE MISS LATENCY: - cycles
cpu0->cpu0_DTLB TOTAL        ACCESS:   16843204 HIT:   15650387 MISS:    1192817 MSHR_MERGE:     186595
cpu0->cpu0_DTLB LOAD         ACCESS:   16843204 HIT:   15650387 MISS:    1192817 MSHR_MERGE:     186595
cpu0->cpu0_DTLB RFO          ACCESS:          0 HIT:          0 MISS:          0 MSHR_MERGE:          0
cpu0->cpu0_DTLB PREFETCH     ACCESS:          0 HIT:          0 MISS:          0 MSHR_MERGE:          0
cpu0->cpu0_DTLB WRITE        ACCESS:          0 HIT:          0 MISS:          0 MSHR_MERGE:          0
cpu0->cpu0_DTLB TRANSLATION  ACCESS:          0 HIT:          0 MISS:          0 MSHR_MERGE:          0
cpu0->cpu0_DTLB PREFETCH REQUESTED:          0 ISSUED:          0 USEFUL:          0 USELESS:          0
cpu0->cpu0_DTLB AVERAGE MISS LATENCY: 7.973 cycles
cpu0->LLC TOTAL        ACCESS:    2517037 HIT:    1444201 MISS:    1072836 MSHR_MERGE:          0
cpu0->LLC LOAD         ACCESS:    1503165 HIT:    1098857 MISS:     404308 MSHR_MERGE:          0
cpu0->LLC RFO          ACCESS:     135202 HIT:     133614 MISS:       1588 MSHR_MERGE:          0
cpu0->LLC PREFETCH     ACCESS:     668350 HIT:      12374 MISS:     655976 MSHR_MERGE:          0
cpu0->LLC WRITE        ACCESS:     203514 HIT:     199342 MISS:       4172 MSHR_MERGE:          0
cpu0->LLC TRANSLATION  ACCESS:       6806 HIT:         14 MISS:       6792 MSHR_MERGE:          0
cpu0->LLC PREFETCH REQUESTED:          0 ISSUED:          0 USEFUL:          0 USELESS:          0
cpu0->LLC AVERAGE MISS LATENCY: 193.1 cycles

DRAM Statistics

Channel 0 RQ ROW_BUFFER_HIT:     272095
  ROW_BUFFER_MISS:     796557
  AVG DBUS CONGESTED CYCLE: 32.88
Channel 0 WQ ROW_BUFFER_HIT:       1939
  ROW_BUFFER_MISS:       4484
  FULL:          0
Channel 0 REFRESHES ISSUED:      13917
