[VMEM] WARNING: physical memory size is smaller than virtual memory size.
WARNING: option --warmup_instructions is deprecated. Use --warmup-instructions instead.
WARNING: option --simulation_instructions is deprecated. Use --simulation-instructions instead.

*** ChampSim Multicore Out-of-Order Simulator ***
Warmup Instructions: 20000000
Simulation Instructions: 50000000
Number of CPUs: 1
Page size: 8192

Off-chip DRAM Size: 16 GiB Channels: 1 Width: 64-bit Data Rate: 3205 MT/s
Heartbeat CPU 0 instructions: 10000000 cycles: 4304086 heartbeat IPC: 2.323 cumulative IPC: 2.323 (Simulation time: 00 hr 00 min 42 sec)
Heartbeat CPU 0 instructions: 20000000 cycles: 8600012 heartbeat IPC: 2.328 cumulative IPC: 2.326 (Simulation time: 00 hr 01 min 25 sec)
Warmup finished CPU 0 instructions: 20000000 cycles: 8600012 cumulative IPC: 2.326 (Simulation time: 00 hr 01 min 25 sec)
Warmup complete CPU 0 instructions: 20000000 cycles: 8600012 cumulative IPC: 2.326 (Simulation time: 00 hr 01 min 25 sec)
Heartbeat CPU 0 instructions: 30000002 cycles: 16139869 heartbeat IPC: 1.326 cumulative IPC: 1.326 (Simulation time: 00 hr 02 min 26 sec)
Heartbeat CPU 0 instructions: 40000003 cycles: 23688567 heartbeat IPC: 1.325 cumulative IPC: 1.326 (Simulation time: 00 hr 03 min 25 sec)
Heartbeat CPU 0 instructions: 50000003 cycles: 31225605 heartbeat IPC: 1.327 cumulative IPC: 1.326 (Simulation time: 00 hr 04 min 24 sec)
Heartbeat CPU 0 instructions: 60000005 cycles: 38764606 heartbeat IPC: 1.326 cumulative IPC: 1.326 (Simulation time: 00 hr 05 min 22 sec)
Simulation finished CPU 0 instructions: 50000001 cycles: 37707162 cumulative IPC: 1.326 (Simulation time: 00 hr 06 min 20 sec)
Simulation complete CPU 0 instructions: 50000001 cycles: 37707162 cumulative IPC: 1.326 (Simulation time: 00 hr 06 min 20 sec)

ChampSim completed all CPUs

=== Simulation ===
CPU 0 runs traces/603.bwaves_s-1740B.champsimtrace.xz

Region of Interest Statistics

CPU 0 cumulative IPC: 1.326 instructions: 50000001 cycles: 37707162
CPU 0 Branch Prediction Accuracy: 99.97% MPKI: 0.00734 Average ROB Occupancy at Mispredict: 190
Branch type MPKI
BRANCH_DIRECT_JUMP: 0
BRANCH_INDIRECT: 0
BRANCH_CONDITIONAL: 0.00734
BRANCH_DIRECT_CALL: 0
BRANCH_INDIRECT_CALL: 0
BRANCH_RETURN: 0

cpu0->cpu0_STLB TOTAL        ACCESS:       7425 HIT:        365 MISS:       7060 MSHR_MERGE:          0
cpu0->cpu0_STLB LOAD         ACCESS:       7425 HIT:        365 MISS:       7060 MSHR_MERGE:          0
cpu0->cpu0_STLB RFO          ACCESS:          0 HIT:          0 MISS:          0 MSHR_MERGE:          0
cpu0->cpu0_STLB PREFETCH     ACCESS:          0 HIT:          0 MISS:          0 MSHR_MERGE:          0
cpu0->cpu0_STLB WRITE        ACCESS:          0 HIT:          0 MISS:          0 MSHR_MERGE:          0
cpu0->cpu0_STLB TRANSLATION  ACCESS:          0 HIT:          0 MISS:          0 MSHR_MERGE:          0
cpu0->cpu0_STLB PREFETCH REQUESTED:          0 ISSUED:          0 USEFUL:          0 USELESS:          0
cpu0->cpu0_STLB AVERAGE MISS LATENCY: 691.7 cycles
cpu0->cpu0_L2C TOTAL        ACCESS:    4019517 HIT:    2440523 MISS:    1578994 MSHR_MERGE:     611409
cpu0->cpu0_L2C LOAD         ACCESS:    1020143 HIT:    1007176 MISS:      12967 MSHR_MERGE:       3214
cpu0->cpu0_L2C RFO          ACCESS:      32712 HIT:       8350 MISS:      24362 MSHR_MERGE:          0
cpu0->cpu0_L2C PREFETCH     ACCESS:    2916650 HIT:    1385426 MISS:    1531224 MSHR_MERGE:     608195
cpu0->cpu0_L2C WRITE        ACCESS:      36510 HIT:      36472 MISS:         38 MSHR_MERGE:          0
cpu0->cpu0_L2C TRANSLATION  ACCESS:      13502 HIT:       3099 MISS:      10403 MSHR_MERGE:          0
cpu0->cpu0_L2C PREFETCH REQUESTED:    3007094 ISSUED:    2916642 USEFUL:     922722 USELESS:        296
cpu0->cpu0_L2C AVERAGE MISS LATENCY: 187.8 cycles
cpu0->cpu0_L1I TOTAL        ACCESS:   12033355 HIT:   12033355 MISS:          0 MSHR_MERGE:          0
cpu0->cpu0_L1I LOAD         ACCESS:   12033355 HIT:   12033355 MISS:          0 MSHR_MERGE:          0
cpu0->cpu0_L1I RFO          ACCESS:          0 HIT:          0 MISS:          0 MSHR_MERGE:          0
cpu0->cpu0_L1I PREFETCH     ACCESS:          0 HIT:          0 MISS:          0 MSHR_MERGE:          0
cpu0->cpu0_L1I WRITE        ACCESS:          0 HIT:          0 MISS:          0 MSHR_MERGE:          0
cpu0->cpu0_L1I TRANSLATION  ACCESS:          0 HIT:          0 MISS:          0 MSHR_MERGE:          0
cpu0->cpu0_L1I PREFETCH REQUESTED:          0 ISSUED:          0 USEFUL:          0 USELESS:          0
cpu0->cpu0_L1I AVERAGE MISS LATENCY: - cycles
cpu0->cpu0_L1D TOTAL        ACCESS:   16954142 HIT:   15853195 MISS:    1100947 MSHR_MERGE:      34441
cpu0->cpu0_L1D LOAD         ACCESS:   14123404 HIT:   13098526 MISS:    1024878 MSHR_MERGE:       4675
cpu0->cpu0_L1D RFO          ACCESS:          0 HIT:          0 MISS:          0 MSHR_MERGE:          0
cpu0->cpu0_L1D PREFETCH     ACCESS:          0 HIT:          0 MISS:          0 MSHR_MERGE:          0
cpu0->cpu0_L1D WRITE        ACCESS:    2816699 HIT:    2754340 MISS:      62359 MSHR_MERGE:      29558
cpu0->cpu0_L1D TRANSLATION  ACCESS:      14039 HIT:        329 MISS:      13710 MSHR_MERGE:        208
cpu0->cpu0_L1D PREFETCH REQUESTED:          0 ISSUED:          0 USEFUL:          0 USELESS:          0
cpu0->cpu0_L1D AVERAGE MISS LATENCY: 16.53 cycles
cpu0->cpu0_ITLB TOTAL        ACCESS:   10898869 HIT:   10898869 MISS:          0 MSHR_MERGE:          0
cpu0->cpu0_ITLB LOAD         ACCESS:   10898869 HIT:   10898869 MISS:          0 MSHR_MERGE:          0
cpu0->cpu0_ITLB RFO          ACCESS:          0 HIT:          0 MISS:          0 MSHR_MERGE:          0
cpu0->cpu0_ITLB PREFETCH     ACCESS:          0 HIT:          0 MISS:          0 MSHR_MERGE:          0
cpu0->cpu0_ITLB WRITE        ACCESS:          0 HIT:          0 MISS:          0 MSHR_MERGE:          0
cpu0->cpu0_ITLB TRANSLATION  ACCESS:          0 HIT:          0 MISS:          0 MSHR_MERGE:          0
cpu0->cpu0_ITLB PREFETCH REQUESTED:          0 ISSUED:          0 USEFUL:          0 USELESS:          0
cpu0->cpu0_ITLB AVERAGE MISS LATENCY: - cycles
cpu0->cpu0_DTLB TOTAL        ACCESS:   16309509 HIT:   16296569 MISS:      12940 MSHR_MERGE:       5515
cpu0->cpu0_DTLB LOAD         ACCESS:   16309509 HIT:   16296569 MISS:      12940 MSHR_MERGE:       5515
cpu0->cpu0_DTLB RFO          ACCESS:          0 HIT:          0 MISS:          0 MSHR_MERGE:          0
cpu0->cpu0_DTLB PREFETCH     ACCESS:          0 HIT:          0 MISS:          0 MSHR_MERGE:          0
cpu0->cpu0_DTLB WRITE        ACCESS:          0 HIT:          0 MISS:          0 MSHR_MERGE:          0
cpu0->cpu0_DTLB TRANSLATION  ACCESS:          0 HIT:          0 MISS:          0 MSHR_MERGE:          0
cpu0->cpu0_DTLB PREFETCH REQUESTED:          0 ISSUED:          0 USEFUL:          0 USELESS:          0
cpu0->cpu0_DTLB AVERAGE MISS LATENCY: 662.6 cycles
cpu0->LLC TOTAL        ACCESS:     992037 HIT:       4518 MISS:     987519 MSHR_MERGE:          0
cpu0->LLC LOAD         ACCESS:       9753 HIT:        169 MISS:       9584 MSHR_MERGE:          0
cpu0->LLC RFO          ACCESS:      24362 HIT:          0 MISS:      24362 MSHR_MERGE:          0
cpu0->LLC PREFETCH     ACCESS:     923029 HIT:       1706 MISS:     921323 MSHR_MERGE:          0
cpu0->LLC WRITE        ACCESS:      24490 HIT:       2637 MISS:      21853 MSHR_MERGE:          0
cpu0->LLC TRANSLATION  ACCESS:      10403 HIT:          6 MISS:      10397 MSHR_MERGE:          0
cpu0->LLC PREFETCH REQUESTED:          0 ISSUED:          0 USEFUL:          0 USELESS:          0
cpu0->LLC AVERAGE MISS LATENCY: 120.5 cycles

DRAM Statistics

Channel 0 RQ ROW_BUFFER_HIT:        714
  ROW_BUFFER_MISS:     964952
  AVG DBUS CONGESTED CYCLE: 3.936
Channel 0 WQ ROW_BUFFER_HIT:       1683
  ROW_BUFFER_MISS:      22662
  FULL:          0
Channel 0 REFRESHES ISSUED:       3142
