[VMEM] WARNING: physical memory size is smaller than virtual memory size.
WARNING: option --warmup_instructions is deprecated. Use --warmup-instructions instead.
WARNING: option --simulation_instructions is deprecated. Use --simulation-instructions instead.

*** ChampSim Multicore Out-of-Order Simulator ***
Warmup Instructions: 20000000
Simulation Instructions: 50000000
Number of CPUs: 1
Page size: 262144

Off-chip DRAM Size: 16 GiB Channels: 1 Width: 64-bit Data Rate: 3205 MT/s
Heartbeat CPU 0 instructions: 10000000 cycles: 3961086 heartbeat IPC: 2.525 cumulative IPC: 2.525 (Simulation time: 00 hr 01 min 04 sec)
Heartbeat CPU 0 instructions: 20000001 cycles: 7767578 heartbeat IPC: 2.627 cumulative IPC: 2.575 (Simulation time: 00 hr 02 min 06 sec)
Warmup finished CPU 0 instructions: 20000001 cycles: 7767578 cumulative IPC: 2.575 (Simulation time: 00 hr 02 min 06 sec)
Warmup complete CPU 0 instructions: 20000001 cycles: 7767578 cumulative IPC: 2.575 (Simulation time: 00 hr 02 min 06 sec)
Heartbeat CPU 0 instructions: 30000003 cycles: 44705380 heartbeat IPC: 0.2707 cumulative IPC: 0.2707 (Simulation time: 00 hr 06 min 31 sec)
Heartbeat CPU 0 instructions: 40000005 cycles: 81954138 heartbeat IPC: 0.2685 cumulative IPC: 0.2696 (Simulation time: 00 hr 10 min 57 sec)
Heartbeat CPU 0 instructions: 50000006 cycles: 119558517 heartbeat IPC: 0.2659 cumulative IPC: 0.2684 (Simulation time: 00 hr 15 min 30 sec)
Heartbeat CPU 0 instructions: 60000007 cycles: 156884058 heartbeat IPC: 0.2679 cumulative IPC: 0.2682 (Simulation time: 00 hr 19 min 56 sec)
Simulation finished CPU 0 instructions: 50000002 cycles: 185134008 cumulative IPC: 0.2701 (Simulation time: 00 hr 23 min 14 sec)
Simulation complete CPU 0 instructions: 50000002 cycles: 185134008 cumulative IPC: 0.2701 (Simulation time: 00 hr 23 min 14 sec)

ChampSim completed all CPUs

=== Simulation ===
CPU 0 runs traces/473.astar-359B.champsimtrace.xz

Region of Interest Statistics

CPU 0 cumulative IPC: 0.2701 instructions: 50000002 cycles: 185134008
CPU 0 Branch Prediction Accuracy: 93.2% MPKI: 13.43 Average ROB Occupancy at Mispredict: 44.44
Branch type MPKI
BRANCH_DIRECT_JUMP: 0
BRANCH_INDIRECT: 0
BRANCH_CONDITIONAL: 13.42
BRANCH_DIRECT_CALL: 0
BRANCH_INDIRECT_CALL: 0.00054
BRANCH_RETURN: 0

cpu0->cpu0_STLB TOTAL        ACCESS:     554298 HIT:     554298 MISS:          0 MSHR_MERGE:          0
cpu0->cpu0_STLB LOAD         ACCESS:     554298 HIT:     554298 MISS:          0 MSHR_MERGE:          0
cpu0->cpu0_STLB RFO          ACCESS:          0 HIT:          0 MISS:          0 MSHR_MERGE:          0
cpu0->cpu0_STLB PREFETCH     ACCESS:          0 HIT:          0 MISS:          0 MSHR_MERGE:          0
cpu0->cpu0_STLB WRITE        ACCESS:          0 HIT:          0 MISS:          0 MSHR_MERGE:          0
cpu0->cpu0_STLB TRANSLATION  ACCESS:          0 HIT:          0 MISS:          0 MSHR_MERGE:          0
cpu0->cpu0_STLB PREFETCH REQUESTED:          0 ISSUED:          0 USEFUL:          0 USELESS:          0
cpu0->cpu0_STLB AVERAGE MISS LATENCY: - cycles
cpu0->cpu0_L2C TOTAL        ACCESS:    4454563 HIT:    2297262 MISS:    2157301 MSHR_MERGE:     131745
cpu0->cpu0_L2C LOAD         ACCESS:    1760604 HIT:     793195 MISS:     967409 MSHR_MERGE:      64372
cpu0->cpu0_L2C RFO          ACCESS:     766848 HIT:      48225 MISS:     718623 MSHR_MERGE:          0
cpu0->cpu0_L2C PREFETCH     ACCESS:     758631 HIT:     287411 MISS:     471220 MSHR_MERGE:      67373
cpu0->cpu0_L2C WRITE        ACCESS:    1168480 HIT:    1168431 MISS:         49 MSHR_MERGE:          0
cpu0->cpu0_L2C TRANSLATION  ACCESS:          0 HIT:          0 MISS:          0 MSHR_MERGE:          0
cpu0->cpu0_L2C PREFETCH REQUESTED:     758631 ISSUED:     758631 USEFUL:     138076 USELESS:     266581
cpu0->cpu0_L2C AVERAGE MISS LATENCY: 272.3 cycles
cpu0->cpu0_L1I TOTAL        ACCESS:     831525 HIT:     831518 MISS:          7 MSHR_MERGE:          0
cpu0->cpu0_L1I LOAD         ACCESS:     831525 HIT:     831518 MISS:          7 MSHR_MERGE:          0
cpu0->cpu0_L1I RFO          ACCESS:          0 HIT:          0 MISS:          0 MSHR_MERGE:          0
cpu0->cpu0_L1I PREFETCH     ACCESS:          0 HIT:          0 MISS:          0 MSHR_MERGE:          0
cpu0->cpu0_L1I WRITE        ACCESS:          0 HIT:          0 MISS:          0 MSHR_MERGE:          0
cpu0->cpu0_L1I TRANSLATION  ACCESS:          0 HIT:          0 MISS:          0 MSHR_MERGE:          0
cpu0->cpu0_L1I PREFETCH REQUESTED:          0 ISSUED:          0 USEFUL:          0 USELESS:          0
cpu0->cpu0_L1I AVERAGE MISS LATENCY: 178.3 cycles
cpu0->cpu0_L1D TOTAL        ACCESS:   19102701 HIT:   15920003 MISS:    3182698 MSHR_MERGE:     655250
cpu0->cpu0_L1D LOAD         ACCESS:   12787887 HIT:   10372107 MISS:    2415780 MSHR_MERGE:     655181
cpu0->cpu0_L1D RFO          ACCESS:          0 HIT:          0 MISS:          0 MSHR_MERGE:          0
cpu0->cpu0_L1D PREFETCH     ACCESS:          0 HIT:          0 MISS:          0 MSHR_MERGE:          0
cpu0->cpu0_L1D WRITE        ACCESS:    6314814 HIT:    5547896 MISS:     766918 MSHR_MERGE:         69
cpu0->cpu0_L1D TRANSLATION  ACCESS:          0 HIT:          0 MISS:          0 MSHR_MERGE:          0
cpu0->cpu0_L1D PREFETCH REQUESTED:          0 ISSUED:          0 USEFUL:          0 USELESS:          0
cpu0->cpu0_L1D AVERAGE MISS LATENCY: 195.2 cycles
cpu0->cpu0_ITLB TOTAL        ACCESS:     829111 HIT:     829111 MISS:          0 MSHR_MERGE:          0
cpu0->cpu0_ITLB LOAD         ACCESS:     829111 HIT:     829111 MISS:          0 MSHR_MERGE:          0
cpu0->cpu0_ITLB RFO          ACCESS:          0 HIT:          0 MISS:          0 MSHR_MERGE:          0
cpu0->cpu0_ITLB PREFETCH     ACCESS:          0 HIT:          0 MISS:          0 MSHR_MERGE:          0
cpu0->cpu0_ITLB WRITE        ACCESS:          0 HIT:          0 MISS:          0 MSHR_MERGE:          0
cpu0->cpu0_ITLB TRANSLATION  ACCESS:          0 HIT:          0 MISS:          0 MSHR_MERGE:          0
cpu0->cpu0_ITLB PREFETCH REQUESTED:          0 ISSUED:          0 USEFUL:          0 USELESS:          0
cpu0->cpu0_ITLB AVERAGE MISS LATENCY: - cycles
cpu0->cpu0_DTLB TOTAL        ACCESS:   18176543 HIT:   17425312 MISS:     751231 MSHR_MERGE:     196933
cpu0->cpu0_DTLB LOAD         ACCESS:   18176543 HIT:   17425312 MISS:     751231 MSHR_MERGE:     196933
cpu0->cpu0_DTLB RFO          ACCESS:          0 HIT:          0 MISS:          0 MSHR_MERGE:          0
cpu0->cpu0_DTLB PREFETCH     ACCESS:          0 HIT:          0 MISS:          0 MSHR_MERGE:          0
cpu0->cpu0_DTLB WRITE        ACCESS:          0 HIT:          0 MISS:          0 MSHR_MERGE:          0
cpu0->cpu0_DTLB TRANSLATION  ACCESS:          0 HIT:          0 MISS:          0 MSHR_MERGE:          0
cpu0->cpu0_DTLB PREFETCH REQUESTED:          0 ISSUED:          0 USEFUL:          0 USELESS:          0
cpu0->cpu0_DTLB AVERAGE MISS LATENCY: 4 cycles
cpu0->LLC TOTAL        ACCESS:    3143246 HIT:     742455 MISS:    2400791 MSHR_MERGE:          0
cpu0->LLC LOAD         ACCESS:     903037 HIT:     232329 MISS:     670708 MSHR_MERGE:          0
cpu0->LLC RFO          ACCESS:     718623 HIT:     151884 MISS:     566739 MSHR_MERGE:          0
cpu0->LLC PREFETCH     ACCESS:     403846 HIT:      59980 MISS:     343866 MSHR_MERGE:          0
cpu0->LLC WRITE        ACCESS:    1117740 HIT:     298262 MISS:     819478 MSHR_MERGE:          0
cpu0->LLC TRANSLATION  ACCESS:          0 HIT:          0 MISS:          0 MSHR_MERGE:          0
cpu0->LLC PREFETCH REQUESTED:          0 ISSUED:          0 USEFUL:          0 USELESS:          0
cpu0->LLC AVERAGE MISS LATENCY: 202 cycles

DRAM Statistics

Channel 0 RQ ROW_BUFFER_HIT:      89944
  ROW_BUFFER_MISS:    1491240
  AVG DBUS CONGESTED CYCLE: 20.16
Channel 0 WQ ROW_BUFFER_HIT:     133199
  ROW_BUFFER_MISS:     725157
  FULL:       7850
Channel 0 REFRESHES ISSUED:      15428
