[VMEM] WARNING: physical memory size is smaller than virtual memory size.
WARNING: option --warmup_instructions is deprecated. Use --warmup-instructions instead.
WARNING: option --simulation_instructions is deprecated. Use --simulation-instructions instead.

*** ChampSim Multicore Out-of-Order Simulator ***
Warmup Instructions: 20000000
Simulation Instructions: 50000000
Number of CPUs: 1
Page size: 262144

Off-chip DRAM Size: 16 GiB Channels: 1 Width: 64-bit Data Rate: 3205 MT/s
Heartbeat CPU 0 instructions: 10000001 cycles: 5769545 heartbeat IPC: 1.733 cumulative IPC: 1.733 (Simulation time: 00 hr 01 min 20 sec)
Warmup finished CPU 0 instructions: 20000000 cycles: 11342608 cumulative IPC: 1.763 (Simulation time: 00 hr 02 min 38 sec)
Warmup complete CPU 0 instructions: 20000000 cycles: 11342608 cumulative IPC: 1.763 (Simulation time: 00 hr 02 min 38 sec)
Heartbeat CPU 0 instructions: 20000004 cycles: 11342609 heartbeat IPC: 1.794 cumulative IPC: 4 (Simulation time: 00 hr 02 min 38 sec)
Heartbeat CPU 0 instructions: 30000006 cycles: 31534153 heartbeat IPC: 0.4953 cumulative IPC: 0.4953 (Simulation time: 00 hr 05 min 20 sec)
Heartbeat CPU 0 instructions: 40000008 cycles: 52029683 heartbeat IPC: 0.4879 cumulative IPC: 0.4916 (Simulation time: 00 hr 08 min 06 sec)
Heartbeat CPU 0 instructions: 50000008 cycles: 72324322 heartbeat IPC: 0.4927 cumulative IPC: 0.492 (Simulation time: 00 hr 10 min 45 sec)
Heartbeat CPU 0 instructions: 60000011 cycles: 91750353 heartbeat IPC: 0.5148 cumulative IPC: 0.4975 (Simulation time: 00 hr 13 min 20 sec)
Simulation finished CPU 0 instructions: 50000001 cycles: 99516762 cumulative IPC: 0.5024 (Simulation time: 00 hr 15 min 56 sec)
Simulation complete CPU 0 instructions: 50000001 cycles: 99516762 cumulative IPC: 0.5024 (Simulation time: 00 hr 15 min 56 sec)

ChampSim completed all CPUs

=== Simulation ===
CPU 0 runs traces/620.omnetpp_s-874B.champsimtrace.xz

Region of Interest Statistics

CPU 0 cumulative IPC: 0.5024 instructions: 50000001 cycles: 99516762
CPU 0 Branch Prediction Accuracy: 96.16% MPKI: 7.99 Average ROB Occupancy at Mispredict: 58.95
Branch type MPKI
BRANCH_DIRECT_JUMP: 0.9384
BRANCH_INDIRECT: 0.1208
BRANCH_CONDITIONAL: 5.805
BRANCH_DIRECT_CALL: 0.00236
BRANCH_INDIRECT_CALL: 0.7298
BRANCH_RETURN: 0.3936

cpu0->cpu0_STLB TOTAL        ACCESS:     271301 HIT:     271293 MISS:          8 MSHR_MERGE:          0
cpu0->cpu0_STLB LOAD         ACCESS:     271301 HIT:     271293 MISS:          8 MSHR_MERGE:          0
cpu0->cpu0_STLB RFO          ACCESS:          0 HIT:          0 MISS:          0 MSHR_MERGE:          0
cpu0->cpu0_STLB PREFETCH     ACCESS:          0 HIT:          0 MISS:          0 MSHR_MERGE:          0
cpu0->cpu0_STLB WRITE        ACCESS:          0 HIT:          0 MISS:          0 MSHR_MERGE:          0
cpu0->cpu0_STLB TRANSLATION  ACCESS:          0 HIT:          0 MISS:          0 MSHR_MERGE:          0
cpu0->cpu0_STLB PREFETCH REQUESTED:          0 ISSUED:          0 USEFUL:          0 USELESS:          0
cpu0->cpu0_STLB AVERAGE MISS LATENCY: 717.9 cycles
cpu0->cpu0_L2C TOTAL        ACCESS:    1629599 HIT:     829054 MISS:     800545 MSHR_MERGE:       3177
cpu0->cpu0_L2C LOAD         ACCESS:     888836 HIT:     274726 MISS:     614110 MSHR_MERGE:         55
cpu0->cpu0_L2C RFO          ACCESS:     135738 HIT:      31616 MISS:     104122 MSHR_MERGE:          1
cpu0->cpu0_L2C PREFETCH     ACCESS:     115715 HIT:      34927 MISS:      80788 MSHR_MERGE:       3121
cpu0->cpu0_L2C WRITE        ACCESS:     489294 HIT:     487783 MISS:       1511 MSHR_MERGE:          0
cpu0->cpu0_L2C TRANSLATION  ACCESS:         16 HIT:          2 MISS:         14 MSHR_MERGE:          0
cpu0->cpu0_L2C PREFETCH REQUESTED:     115715 ISSUED:     115715 USEFUL:      16676 USELESS:      60882
cpu0->cpu0_L2C AVERAGE MISS LATENCY: 136.4 cycles
cpu0->cpu0_L1I TOTAL        ACCESS:    8098555 HIT:    8072890 MISS:      25665 MSHR_MERGE:       7130
cpu0->cpu0_L1I LOAD         ACCESS:    8098555 HIT:    8072890 MISS:      25665 MSHR_MERGE:       7130
cpu0->cpu0_L1I RFO          ACCESS:          0 HIT:          0 MISS:          0 MSHR_MERGE:          0
cpu0->cpu0_L1I PREFETCH     ACCESS:          0 HIT:          0 MISS:          0 MSHR_MERGE:          0
cpu0->cpu0_L1I WRITE        ACCESS:          0 HIT:          0 MISS:          0 MSHR_MERGE:          0
cpu0->cpu0_L1I TRANSLATION  ACCESS:          0 HIT:          0 MISS:          0 MSHR_MERGE:          0
cpu0->cpu0_L1I PREFETCH REQUESTED:          0 ISSUED:          0 USEFUL:          0 USELESS:          0
cpu0->cpu0_L1I AVERAGE MISS LATENCY: 27.2 cycles
cpu0->cpu0_L1D TOTAL        ACCESS:   18443512 HIT:   16992545 MISS:    1450967 MSHR_MERGE:     444905
cpu0->cpu0_L1D LOAD         ACCESS:    9412463 HIT:    8335127 MISS:    1077336 MSHR_MERGE:     207031
cpu0->cpu0_L1D RFO          ACCESS:          0 HIT:          0 MISS:          0 MSHR_MERGE:          0
cpu0->cpu0_L1D PREFETCH     ACCESS:          0 HIT:          0 MISS:          0 MSHR_MERGE:          0
cpu0->cpu0_L1D WRITE        ACCESS:    9031033 HIT:    8657418 MISS:     373615 MSHR_MERGE:     237874
cpu0->cpu0_L1D TRANSLATION  ACCESS:         16 HIT:          0 MISS:         16 MSHR_MERGE:          0
cpu0->cpu0_L1D PREFETCH REQUESTED:          0 ISSUED:          0 USEFUL:          0 USELESS:          0
cpu0->cpu0_L1D AVERAGE MISS LATENCY: 106 cycles
cpu0->cpu0_ITLB TOTAL        ACCESS:    7259570 HIT:    7259567 MISS:          3 MSHR_MERGE:          1
cpu0->cpu0_ITLB LOAD         ACCESS:    7259570 HIT:    7259567 MISS:          3 MSHR_MERGE:          1
cpu0->cpu0_ITLB RFO          ACCESS:          0 HIT:          0 MISS:          0 MSHR_MERGE:          0
cpu0->cpu0_ITLB PREFETCH     ACCESS:          0 HIT:          0 MISS:          0 MSHR_MERGE:          0
cpu0->cpu0_ITLB WRITE        ACCESS:          0 HIT:          0 MISS:          0 MSHR_MERGE:          0
cpu0->cpu0_ITLB TRANSLATION  ACCESS:          0 HIT:          0 MISS:          0 MSHR_MERGE:          0
cpu0->cpu0_ITLB PREFETCH REQUESTED:          0 ISSUED:          0 USEFUL:          0 USELESS:          0
cpu0->cpu0_ITLB AVERAGE MISS LATENCY: 389.5 cycles
cpu0->cpu0_DTLB TOTAL        ACCESS:   17116471 HIT:   16813223 MISS:     303248 MSHR_MERGE:      31949
cpu0->cpu0_DTLB LOAD         ACCESS:   17116471 HIT:   16813223 MISS:     303248 MSHR_MERGE:      31949
cpu0->cpu0_DTLB RFO          ACCESS:          0 HIT:          0 MISS:          0 MSHR_MERGE:          0
cpu0->cpu0_DTLB PREFETCH     ACCESS:          0 HIT:          0 MISS:          0 MSHR_MERGE:          0
cpu0->cpu0_DTLB WRITE        ACCESS:          0 HIT:          0 MISS:          0 MSHR_MERGE:          0
cpu0->cpu0_DTLB TRANSLATION  ACCESS:          0 HIT:          0 MISS:          0 MSHR_MERGE:          0
cpu0->cpu0_DTLB PREFETCH REQUESTED:          0 ISSUED:          0 USEFUL:          0 USELESS:          0
cpu0->cpu0_DTLB AVERAGE MISS LATENCY: 4.018 cycles
cpu0->LLC TOTAL        ACCESS:    1162874 HIT:     272788 MISS:     890086 MSHR_MERGE:          0
cpu0->LLC LOAD         ACCESS:     614055 HIT:     124903 MISS:     489152 MSHR_MERGE:          0
cpu0->LLC RFO          ACCESS:     104120 HIT:      24461 MISS:      79659 MSHR_MERGE:          0
cpu0->LLC PREFETCH     ACCESS:      77667 HIT:       2391 MISS:      75276 MSHR_MERGE:          0
cpu0->LLC WRITE        ACCESS:     367018 HIT:     121033 MISS:     245985 MSHR_MERGE:          0
cpu0->LLC TRANSLATION  ACCESS:         14 HIT:          0 MISS:         14 MSHR_MERGE:          0
cpu0->LLC PREFETCH REQUESTED:          0 ISSUED:          0 USEFUL:          0 USELESS:          0
cpu0->LLC AVERAGE MISS LATENCY: 108.4 cycles

DRAM Statistics

Channel 0 RQ ROW_BUFFER_HIT:      48532
  ROW_BUFFER_MISS:     595531
  AVG DBUS CONGESTED CYCLE: 24.22
Channel 0 WQ ROW_BUFFER_HIT:      66660
  ROW_BUFFER_MISS:     199172
  FULL:          0
Channel 0 REFRESHES ISSUED:       8293
