[VMEM] WARNING: physical memory size is smaller than virtual memory size.
WARNING: option --warmup_instructions is deprecated. Use --warmup-instructions instead.
WARNING: option --simulation_instructions is deprecated. Use --simulation-instructions instead.

*** ChampSim Multicore Out-of-Order Simulator ***
Warmup Instructions: 20000000
Simulation Instructions: 50000000
Number of CPUs: 1
Page size: 262144

Off-chip DRAM Size: 16 GiB Channels: 1 Width: 64-bit Data Rate: 3205 MT/s
Heartbeat CPU 0 instructions: 10000000 cycles: 2764034 heartbeat IPC: 3.618 cumulative IPC: 3.618 (Simulation time: 00 hr 00 min 43 sec)
Heartbeat CPU 0 instructions: 20000000 cycles: 5519463 heartbeat IPC: 3.629 cumulative IPC: 3.624 (Simulation time: 00 hr 01 min 28 sec)
Warmup finished CPU 0 instructions: 20000000 cycles: 5519463 cumulative IPC: 3.624 (Simulation time: 00 hr 01 min 28 sec)
Warmup complete CPU 0 instructions: 20000000 cycles: 5519463 cumulative IPC: 3.624 (Simulation time: 00 hr 01 min 28 sec)
Heartbeat CPU 0 instructions: 30000002 cycles: 17164377 heartbeat IPC: 0.8587 cumulative IPC: 0.8587 (Simulation time: 00 hr 03 min 44 sec)
Heartbeat CPU 0 instructions: 40000004 cycles: 28832298 heartbeat IPC: 0.8571 cumulative IPC: 0.8579 (Simulation time: 00 hr 06 min 00 sec)
Heartbeat CPU 0 instructions: 50000005 cycles: 40550103 heartbeat IPC: 0.8534 cumulative IPC: 0.8564 (Simulation time: 00 hr 08 min 17 sec)
Heartbeat CPU 0 instructions: 60000006 cycles: 52248106 heartbeat IPC: 0.8548 cumulative IPC: 0.856 (Simulation time: 00 hr 10 min 37 sec)
Simulation finished CPU 0 instructions: 50000002 cycles: 58429657 cumulative IPC: 0.8557 (Simulation time: 00 hr 12 min 54 sec)
Simulation complete CPU 0 instructions: 50000002 cycles: 58429657 cumulative IPC: 0.8557 (Simulation time: 00 hr 12 min 54 sec)

ChampSim completed all CPUs

=== Simulation ===
CPU 0 runs traces/470.lbm-1274B.champsimtrace.xz

Region of Interest Statistics

CPU 0 cumulative IPC: 0.8557 instructions: 50000002 cycles: 58429657
CPU 0 Branch Prediction Accuracy: 99.79% MPKI: 0.02864 Average ROB Occupancy at Mispredict: 189.9
Branch type MPKI
BRANCH_DIRECT_JUMP: 0
BRANCH_INDIRECT: 0
BRANCH_CONDITIONAL: 0.02864
BRANCH_DIRECT_CALL: 0
BRANCH_INDIRECT_CALL: 0
BRANCH_RETURN: 0

cpu0->cpu0_STLB TOTAL        ACCESS:        174 HIT:          0 MISS:        174 MSHR_MERGE:          0
cpu0->cpu0_STLB LOAD         ACCESS:        174 HIT:          0 MISS:        174 MSHR_MERGE:          0
cpu0->cpu0_STLB RFO          ACCESS:          0 HIT:          0 MISS:          0 MSHR_MERGE:          0
cpu0->cpu0_STLB PREFETCH     ACCESS:          0 HIT:          0 MISS:          0 MSHR_MERGE:          0
cpu0->cpu0_STLB WRITE        ACCESS:          0 HIT:          0 MISS:          0 MSHR_MERGE:          0
cpu0->cpu0_STLB TRANSLATION  ACCESS:          0 HIT:          0 MISS:          0 MSHR_MERGE:          0
cpu0->cpu0_STLB PREFETCH REQUESTED:          0 ISSUED:          0 USEFUL:          0 USELESS:          0
cpu0->cpu0_STLB AVERAGE MISS LATENCY: 1384 cycles
cpu0->cpu0_L2C TOTAL        ACCESS:    4952367 HIT:    3466082 MISS:    1486285 MSHR_MERGE:      62665
cpu0->cpu0_L2C LOAD         ACCESS:     355730 HIT:     277035 MISS:      78695 MSHR_MERGE:      28873
cpu0->cpu0_L2C RFO          ACCESS:    2002635 HIT:     935574 MISS:    1067061 MSHR_MERGE:          0
cpu0->cpu0_L2C PREFETCH     ACCESS:     590952 HIT:     250787 MISS:     340165 MSHR_MERGE:      33792
cpu0->cpu0_L2C WRITE        ACCESS:    2002701 HIT:    2002686 MISS:         15 MSHR_MERGE:          0
cpu0->cpu0_L2C TRANSLATION  ACCESS:        349 HIT:          0 MISS:        349 MSHR_MERGE:          0
cpu0->cpu0_L2C PREFETCH REQUESTED:     590951 ISSUED:     590951 USEFUL:     305908 USELESS:        474
cpu0->cpu0_L2C AVERAGE MISS LATENCY: 481.3 cycles
cpu0->cpu0_L1I TOTAL        ACCESS:    8579730 HIT:    8579730 MISS:          0 MSHR_MERGE:          0
cpu0->cpu0_L1I LOAD         ACCESS:    8579730 HIT:    8579730 MISS:          0 MSHR_MERGE:          0
cpu0->cpu0_L1I RFO          ACCESS:          0 HIT:          0 MISS:          0 MSHR_MERGE:          0
cpu0->cpu0_L1I PREFETCH     ACCESS:          0 HIT:          0 MISS:          0 MSHR_MERGE:          0
cpu0->cpu0_L1I WRITE        ACCESS:          0 HIT:          0 MISS:          0 MSHR_MERGE:          0
cpu0->cpu0_L1I TRANSLATION  ACCESS:          0 HIT:          0 MISS:          0 MSHR_MERGE:          0
cpu0->cpu0_L1I PREFETCH REQUESTED:          0 ISSUED:          0 USEFUL:          0 USELESS:          0
cpu0->cpu0_L1I AVERAGE MISS LATENCY: - cycles
cpu0->cpu0_L1D TOTAL        ACCESS:    7226103 HIT:    4795087 MISS:    2431016 MSHR_MERGE:      72230
cpu0->cpu0_L1D LOAD         ACCESS:    2202235 HIT:    1829144 MISS:     373091 MSHR_MERGE:      17361
cpu0->cpu0_L1D RFO          ACCESS:          0 HIT:          0 MISS:          0 MSHR_MERGE:          0
cpu0->cpu0_L1D PREFETCH     ACCESS:          0 HIT:          0 MISS:          0 MSHR_MERGE:          0
cpu0->cpu0_L1D WRITE        ACCESS:    5023519 HIT:    2965943 MISS:    2057576 MSHR_MERGE:      54869
cpu0->cpu0_L1D TRANSLATION  ACCESS:        349 HIT:          0 MISS:        349 MSHR_MERGE:          0
cpu0->cpu0_L1D PREFETCH REQUESTED:          0 ISSUED:          0 USEFUL:          0 USELESS:          0
cpu0->cpu0_L1D AVERAGE MISS LATENCY: 266.9 cycles
cpu0->cpu0_ITLB TOTAL        ACCESS:    7065123 HIT:    7065123 MISS:          0 MSHR_MERGE:          0
cpu0->cpu0_ITLB LOAD         ACCESS:    7065123 HIT:    7065123 MISS:          0 MSHR_MERGE:          0
cpu0->cpu0_ITLB RFO          ACCESS:          0 HIT:          0 MISS:          0 MSHR_MERGE:          0
cpu0->cpu0_ITLB PREFETCH     ACCESS:          0 HIT:          0 MISS:          0 MSHR_MERGE:          0
cpu0->cpu0_ITLB WRITE        ACCESS:          0 HIT:          0 MISS:          0 MSHR_MERGE:          0
cpu0->cpu0_ITLB TRANSLATION  ACCESS:          0 HIT:          0 MISS:          0 MSHR_MERGE:          0
cpu0->cpu0_ITLB PREFETCH REQUESTED:          0 ISSUED:          0 USEFUL:          0 USELESS:          0
cpu0->cpu0_ITLB AVERAGE MISS LATENCY: - cycles
cpu0->cpu0_DTLB TOTAL        ACCESS:    6696764 HIT:    6696176 MISS:        588 MSHR_MERGE:        414
cpu0->cpu0_DTLB LOAD         ACCESS:    6696764 HIT:    6696176 MISS:        588 MSHR_MERGE:        414
cpu0->cpu0_DTLB RFO          ACCESS:          0 HIT:          0 MISS:          0 MSHR_MERGE:          0
cpu0->cpu0_DTLB PREFETCH     ACCESS:          0 HIT:          0 MISS:          0 MSHR_MERGE:          0
cpu0->cpu0_DTLB WRITE        ACCESS:          0 HIT:          0 MISS:          0 MSHR_MERGE:          0
cpu0->cpu0_DTLB TRANSLATION  ACCESS:          0 HIT:          0 MISS:          0 MSHR_MERGE:          0
cpu0->cpu0_DTLB PREFETCH REQUESTED:          0 ISSUED:          0 USEFUL:          0 USELESS:          0
cpu0->cpu0_DTLB AVERAGE MISS LATENCY: 1389 cycles
cpu0->LLC TOTAL        ACCESS:    2490662 HIT:          1 MISS:    2490661 MSHR_MERGE:          0
cpu0->LLC LOAD         ACCESS:      49822 HIT:          0 MISS:      49822 MSHR_MERGE:          0
cpu0->LLC RFO          ACCESS:    1067061 HIT:          0 MISS:    1067061 MSHR_MERGE:          0
cpu0->LLC PREFETCH     ACCESS:     306373 HIT:          0 MISS:     306373 MSHR_MERGE:          0
cpu0->LLC WRITE        ACCESS:    1067057 HIT:          0 MISS:    1067057 MSHR_MERGE:          0
cpu0->LLC TRANSLATION  ACCESS:        349 HIT:          1 MISS:        348 MSHR_MERGE:          0
cpu0->LLC PREFETCH REQUESTED:          0 ISSUED:          0 USEFUL:          0 USELESS:          0
cpu0->LLC AVERAGE MISS LATENCY: 245 cycles

DRAM Statistics

Channel 0 RQ ROW_BUFFER_HIT:     115221
  ROW_BUFFER_MISS:    1308372
  AVG DBUS CONGESTED CYCLE: 15.17
Channel 0 WQ ROW_BUFFER_HIT:     325625
  ROW_BUFFER_MISS:     741390
  FULL:          0
Channel 0 REFRESHES ISSUED:       4870
