[VMEM] WARNING: physical memory size is smaller than virtual memory size.
WARNING: option --warmup_instructions is deprecated. Use --warmup-instructions instead.
WARNING: option --simulation_instructions is deprecated. Use --simulation-instructions instead.

*** ChampSim Multicore Out-of-Order Simulator ***
Warmup Instructions: 20000000
Simulation Instructions: 50000000
Number of CPUs: 1
Page size: 8192

Off-chip DRAM Size: 16 GiB Channels: 1 Width: 64-bit Data Rate: 3205 MT/s
Heartbeat CPU 0 instructions: 10000000 cycles: 6909356 heartbeat IPC: 1.447 cumulative IPC: 1.447 (Simulation time: 00 hr 00 min 55 sec)
Heartbeat CPU 0 instructions: 20000001 cycles: 13367326 heartbeat IPC: 1.548 cumulative IPC: 1.496 (Simulation time: 00 hr 01 min 51 sec)
Warmup finished CPU 0 instructions: 20000001 cycles: 13367326 cumulative IPC: 1.496 (Simulation time: 00 hr 01 min 51 sec)
Warmup complete CPU 0 instructions: 20000001 cycles: 13367326 cumulative IPC: 1.496 (Simulation time: 00 hr 01 min 51 sec)
Heartbeat CPU 0 instructions: 30000001 cycles: 35666579 heartbeat IPC: 0.4484 cumulative IPC: 0.4484 (Simulation time: 00 hr 03 min 49 sec)
Heartbeat CPU 0 instructions: 40000002 cycles: 47580804 heartbeat IPC: 0.8393 cumulative IPC: 0.5846 (Simulation time: 00 hr 05 min 00 sec)
Heartbeat CPU 0 instructions: 50000003 cycles: 64925285 heartbeat IPC: 0.5766 cumulative IPC: 0.5819 (Simulation time: 00 hr 06 min 35 sec)
Heartbeat CPU 0 instructions: 60000003 cycles: 92680501 heartbeat IPC: 0.3603 cumulative IPC: 0.5043 (Simulation time: 00 hr 08 min 58 sec)
Simulation finished CPU 0 instructions: 50000000 cycles: 95942955 cumulative IPC: 0.5211 (Simulation time: 00 hr 10 min 30 sec)
Simulation complete CPU 0 instructions: 50000000 cycles: 95942955 cumulative IPC: 0.5211 (Simulation time: 00 hr 10 min 30 sec)

ChampSim completed all CPUs

=== Simulation ===
CPU 0 runs traces/429.mcf-217B.champsimtrace.xz

Region of Interest Statistics

CPU 0 cumulative IPC: 0.5211 instructions: 50000000 cycles: 95942955
CPU 0 Branch Prediction Accuracy: 98.95% MPKI: 1.194 Average ROB Occupancy at Mispredict: 126
Branch type MPKI
BRANCH_DIRECT_JUMP: 0
BRANCH_INDIRECT: 0
BRANCH_CONDITIONAL: 1.194
BRANCH_DIRECT_CALL: 0
BRANCH_INDIRECT_CALL: 0
BRANCH_RETURN: 0

cpu0->cpu0_STLB TOTAL        ACCESS:      58307 HIT:      56457 MISS:       1850 MSHR_MERGE:          0
cpu0->cpu0_STLB LOAD         ACCESS:      58307 HIT:      56457 MISS:       1850 MSHR_MERGE:          0
cpu0->cpu0_STLB RFO          ACCESS:          0 HIT:          0 MISS:          0 MSHR_MERGE:          0
cpu0->cpu0_STLB PREFETCH     ACCESS:          0 HIT:          0 MISS:          0 MSHR_MERGE:          0
cpu0->cpu0_STLB WRITE        ACCESS:          0 HIT:          0 MISS:          0 MSHR_MERGE:          0
cpu0->cpu0_STLB TRANSLATION  ACCESS:          0 HIT:          0 MISS:          0 MSHR_MERGE:          0
cpu0->cpu0_STLB PREFETCH REQUESTED:          0 ISSUED:          0 USEFUL:          0 USELESS:          0
cpu0->cpu0_STLB AVERAGE MISS LATENCY: 700.3 cycles
cpu0->cpu0_L2C TOTAL        ACCESS:    9246061 HIT:    3804191 MISS:    5441870 MSHR_MERGE:    2530820
cpu0->cpu0_L2C LOAD         ACCESS:    2598491 HIT:    1661310 MISS:     937181 MSHR_MERGE:     522162
cpu0->cpu0_L2C RFO          ACCESS:       1567 HIT:       1443 MISS:        124 MSHR_MERGE:          5
cpu0->cpu0_L2C PREFETCH     ACCESS:    6546385 HIT:    2045476 MISS:    4500909 MSHR_MERGE:    2008653
cpu0->cpu0_L2C WRITE        ACCESS:      96225 HIT:      95471 MISS:        754 MSHR_MERGE:          0
cpu0->cpu0_L2C TRANSLATION  ACCESS:       3393 HIT:        491 MISS:       2902 MSHR_MERGE:          0
cpu0->cpu0_L2C PREFETCH REQUESTED:    6546668 ISSUED:    6546371 USEFUL:    2164121 USELESS:     328203
cpu0->cpu0_L2C AVERAGE MISS LATENCY: 96.62 cycles
cpu0->cpu0_L1I TOTAL        ACCESS:   10901324 HIT:   10901324 MISS:          0 MSHR_MERGE:          0
cpu0->cpu0_L1I LOAD         ACCESS:   10901324 HIT:   10901324 MISS:          0 MSHR_MERGE:          0
cpu0->cpu0_L1I RFO          ACCESS:          0 HIT:          0 MISS:          0 MSHR_MERGE:          0
cpu0->cpu0_L1I PREFETCH     ACCESS:          0 HIT:          0 MISS:          0 MSHR_MERGE:          0
cpu0->cpu0_L1I WRITE        ACCESS:          0 HIT:          0 MISS:          0 MSHR_MERGE:          0
cpu0->cpu0_L1I TRANSLATION  ACCESS:          0 HIT:          0 MISS:          0 MSHR_MERGE:          0
cpu0->cpu0_L1I PREFETCH REQUESTED:          0 ISSUED:          0 USEFUL:          0 USELESS:          0
cpu0->cpu0_L1I AVERAGE MISS LATENCY: - cycles
cpu0->cpu0_L1D TOTAL        ACCESS:   19478882 HIT:   16743538 MISS:    2735344 MSHR_MERGE:     131886
cpu0->cpu0_L1D LOAD         ACCESS:    9102158 HIT:    6373476 MISS:    2728682 MSHR_MERGE:     130184
cpu0->cpu0_L1D RFO          ACCESS:          0 HIT:          0 MISS:          0 MSHR_MERGE:          0
cpu0->cpu0_L1D PREFETCH     ACCESS:          0 HIT:          0 MISS:          0 MSHR_MERGE:          0
cpu0->cpu0_L1D WRITE        ACCESS:   10373017 HIT:   10369748 MISS:       3269 MSHR_MERGE:       1702
cpu0->cpu0_L1D TRANSLATION  ACCESS:       3707 HIT:        314 MISS:       3393 MSHR_MERGE:          0
cpu0->cpu0_L1D PREFETCH REQUESTED:          0 ISSUED:          0 USEFUL:          0 USELESS:          0
cpu0->cpu0_L1D AVERAGE MISS LATENCY: 43.31 cycles
cpu0->cpu0_ITLB TOTAL        ACCESS:   10223023 HIT:   10223023 MISS:          0 MSHR_MERGE:          0
cpu0->cpu0_ITLB LOAD         ACCESS:   10223023 HIT:   10223023 MISS:          0 MSHR_MERGE:          0
cpu0->cpu0_ITLB RFO          ACCESS:          0 HIT:          0 MISS:          0 MSHR_MERGE:          0
cpu0->cpu0_ITLB PREFETCH     ACCESS:          0 HIT:          0 MISS:          0 MSHR_MERGE:          0
cpu0->cpu0_ITLB WRITE        ACCESS:          0 HIT:          0 MISS:          0 MSHR_MERGE:          0
cpu0->cpu0_ITLB TRANSLATION  ACCESS:          0 HIT:          0 MISS:          0 MSHR_MERGE:          0
cpu0->cpu0_ITLB PREFETCH REQUESTED:          0 ISSUED:          0 USEFUL:          0 USELESS:          0
cpu0->cpu0_ITLB AVERAGE MISS LATENCY: - cycles
cpu0->cpu0_DTLB TOTAL        ACCESS:   17303094 HIT:   17224674 MISS:      78420 MSHR_MERGE:      20113
cpu0->cpu0_DTLB LOAD         ACCESS:   17303094 HIT:   17224674 MISS:      78420 MSHR_MERGE:      20113
cpu0->cpu0_DTLB RFO          ACCESS:          0 HIT:          0 MISS:          0 MSHR_MERGE:          0
cpu0->cpu0_DTLB PREFETCH     ACCESS:          0 HIT:          0 MISS:          0 MSHR_MERGE:          0
cpu0->cpu0_DTLB WRITE        ACCESS:          0 HIT:          0 MISS:          0 MSHR_MERGE:          0
cpu0->cpu0_DTLB TRANSLATION  ACCESS:          0 HIT:          0 MISS:          0 MSHR_MERGE:          0
cpu0->cpu0_DTLB PREFETCH REQUESTED:          0 ISSUED:          0 USEFUL:          0 USELESS:          0
cpu0->cpu0_DTLB AVERAGE MISS LATENCY: 26.25 cycles
cpu0->LLC TOTAL        ACCESS:    2991033 HIT:     610688 MISS:    2380345 MSHR_MERGE:          0
cpu0->LLC LOAD         ACCESS:     415019 HIT:      74679 MISS:     340340 MSHR_MERGE:          0
cpu0->LLC RFO          ACCESS:        119 HIT:         87 MISS:         32 MSHR_MERGE:          0
cpu0->LLC PREFETCH     ACCESS:    2492254 HIT:     517398 MISS:    1974856 MSHR_MERGE:          0
cpu0->LLC WRITE        ACCESS:      80739 HIT:      18515 MISS:      62224 MSHR_MERGE:          0
cpu0->LLC TRANSLATION  ACCESS:       2902 HIT:          9 MISS:       2893 MSHR_MERGE:          0
cpu0->LLC PREFETCH REQUESTED:          0 ISSUED:          0 USEFUL:          0 USELESS:          0
cpu0->LLC AVERAGE MISS LATENCY: 134.2 cycles

DRAM Statistics

Channel 0 RQ ROW_BUFFER_HIT:     246999
  ROW_BUFFER_MISS:    2070743
  AVG DBUS CONGESTED CYCLE: 10.4
Channel 0 WQ ROW_BUFFER_HIT:      11893
  ROW_BUFFER_MISS:      63311
  FULL:          0
Channel 0 REFRESHES ISSUED:       7996
