[VMEM] WARNING: physical memory size is smaller than virtual memory size.
WARNING: option --warmup_instructions is deprecated. Use --warmup-instructions instead.
WARNING: option --simulation_instructions is deprecated. Use --simulation-instructions instead.

*** ChampSim Multicore Out-of-Order Simulator ***
Warmup Instructions: 20000000
Simulation Instructions: 50000000
Number of CPUs: 1
Page size: 8192

Off-chip DRAM Size: 16 GiB Channels: 1 Width: 64-bit Data Rate: 3205 MT/s
Heartbeat CPU 0 instructions: 10000000 cycles: 5198235 heartbeat IPC: 1.924 cumulative IPC: 1.924 (Simulation time: 00 hr 00 min 39 sec)
Heartbeat CPU 0 instructions: 20000000 cycles: 10388101 heartbeat IPC: 1.927 cumulative IPC: 1.925 (Simulation time: 00 hr 01 min 17 sec)
Warmup finished CPU 0 instructions: 20000000 cycles: 10388101 cumulative IPC: 1.925 (Simulation time: 00 hr 01 min 17 sec)
Warmup complete CPU 0 instructions: 20000000 cycles: 10388101 cumulative IPC: 1.925 (Simulation time: 00 hr 01 min 17 sec)
Heartbeat CPU 0 instructions: 30000000 cycles: 22395179 heartbeat IPC: 0.8328 cumulative IPC: 0.8328 (Simulation time: 00 hr 02 min 50 sec)
Heartbeat CPU 0 instructions: 40000000 cycles: 34418235 heartbeat IPC: 0.8317 cumulative IPC: 0.8323 (Simulation time: 00 hr 04 min 22 sec)
Heartbeat CPU 0 instructions: 50000001 cycles: 46494143 heartbeat IPC: 0.8281 cumulative IPC: 0.8309 (Simulation time: 00 hr 05 min 56 sec)
Heartbeat CPU 0 instructions: 60000002 cycles: 58561184 heartbeat IPC: 0.8287 cumulative IPC: 0.8303 (Simulation time: 00 hr 07 min 29 sec)
Simulation finished CPU 0 instructions: 50000000 cycles: 60215478 cumulative IPC: 0.8304 (Simulation time: 00 hr 09 min 02 sec)
Simulation complete CPU 0 instructions: 50000000 cycles: 60215478 cumulative IPC: 0.8304 (Simulation time: 00 hr 09 min 02 sec)

ChampSim completed all CPUs

=== Simulation ===
CPU 0 runs traces/470.lbm-1274B.champsimtrace.xz

Region of Interest Statistics

CPU 0 cumulative IPC: 0.8304 instructions: 50000000 cycles: 60215478
CPU 0 Branch Prediction Accuracy: 99.79% MPKI: 0.02864 Average ROB Occupancy at Mispredict: 189.9
Branch type MPKI
BRANCH_DIRECT_JUMP: 0
BRANCH_INDIRECT: 0
BRANCH_CONDITIONAL: 0.02864
BRANCH_DIRECT_CALL: 0
BRANCH_INDIRECT_CALL: 0
BRANCH_RETURN: 0

cpu0->cpu0_STLB TOTAL        ACCESS:      11115 HIT:       5557 MISS:       5558 MSHR_MERGE:          0
cpu0->cpu0_STLB LOAD         ACCESS:      11115 HIT:       5557 MISS:       5558 MSHR_MERGE:          0
cpu0->cpu0_STLB RFO          ACCESS:          0 HIT:          0 MISS:          0 MSHR_MERGE:          0
cpu0->cpu0_STLB PREFETCH     ACCESS:          0 HIT:          0 MISS:          0 MSHR_MERGE:          0
cpu0->cpu0_STLB WRITE        ACCESS:          0 HIT:          0 MISS:          0 MSHR_MERGE:          0
cpu0->cpu0_STLB TRANSLATION  ACCESS:          0 HIT:          0 MISS:          0 MSHR_MERGE:          0
cpu0->cpu0_STLB PREFETCH REQUESTED:          0 ISSUED:          0 USEFUL:          0 USELESS:          0
cpu0->cpu0_STLB AVERAGE MISS LATENCY: 1069 cycles
cpu0->cpu0_L2C TOTAL        ACCESS:    4933781 HIT:    3351939 MISS:    1581842 MSHR_MERGE:     139396
cpu0->cpu0_L2C LOAD         ACCESS:     355730 HIT:     249673 MISS:     106057 MSHR_MERGE:      54371
cpu0->cpu0_L2C RFO          ACCESS:    2002662 HIT:     924671 MISS:    1077991 MSHR_MERGE:          0
cpu0->cpu0_L2C PREFETCH     ACCESS:     561516 HIT:     172421 MISS:     389095 MSHR_MERGE:      85025
cpu0->cpu0_L2C WRITE        ACCESS:    2002745 HIT:    2002730 MISS:         15 MSHR_MERGE:          0
cpu0->cpu0_L2C TRANSLATION  ACCESS:      11128 HIT:       2444 MISS:       8684 MSHR_MERGE:          0
cpu0->cpu0_L2C PREFETCH REQUESTED:     561516 ISSUED:     561516 USEFUL:     304044 USELESS:         31
cpu0->cpu0_L2C AVERAGE MISS LATENCY: 405.9 cycles
cpu0->cpu0_L1I TOTAL        ACCESS:   14488040 HIT:   14488040 MISS:          0 MSHR_MERGE:          0
cpu0->cpu0_L1I LOAD         ACCESS:   14488040 HIT:   14488040 MISS:          0 MSHR_MERGE:          0
cpu0->cpu0_L1I RFO          ACCESS:          0 HIT:          0 MISS:          0 MSHR_MERGE:          0
cpu0->cpu0_L1I PREFETCH     ACCESS:          0 HIT:          0 MISS:          0 MSHR_MERGE:          0
cpu0->cpu0_L1I WRITE        ACCESS:          0 HIT:          0 MISS:          0 MSHR_MERGE:          0
cpu0->cpu0_L1I TRANSLATION  ACCESS:          0 HIT:          0 MISS:          0 MSHR_MERGE:          0
cpu0->cpu0_L1I PREFETCH REQUESTED:          0 ISSUED:          0 USEFUL:          0 USELESS:          0
cpu0->cpu0_L1I AVERAGE MISS LATENCY: - cycles
cpu0->cpu0_L1D TOTAL        ACCESS:    8175898 HIT:    5699693 MISS:    2476205 MSHR_MERGE:     106596
cpu0->cpu0_L1D LOAD         ACCESS:    3141251 HIT:    2715306 MISS:     425945 MSHR_MERGE:      70215
cpu0->cpu0_L1D RFO          ACCESS:          0 HIT:          0 MISS:          0 MSHR_MERGE:          0
cpu0->cpu0_L1D PREFETCH     ACCESS:          0 HIT:          0 MISS:          0 MSHR_MERGE:          0
cpu0->cpu0_L1D WRITE        ACCESS:    5023519 HIT:    2984387 MISS:    2039132 MSHR_MERGE:      36381
cpu0->cpu0_L1D TRANSLATION  ACCESS:      11128 HIT:          0 MISS:      11128 MSHR_MERGE:          0
cpu0->cpu0_L1D PREFETCH REQUESTED:          0 ISSUED:          0 USEFUL:          0 USELESS:          0
cpu0->cpu0_L1D AVERAGE MISS LATENCY: 225.3 cycles
cpu0->cpu0_ITLB TOTAL        ACCESS:   12725939 HIT:   12725939 MISS:          0 MSHR_MERGE:          0
cpu0->cpu0_ITLB LOAD         ACCESS:   12725939 HIT:   12725939 MISS:          0 MSHR_MERGE:          0
cpu0->cpu0_ITLB RFO          ACCESS:          0 HIT:          0 MISS:          0 MSHR_MERGE:          0
cpu0->cpu0_ITLB PREFETCH     ACCESS:          0 HIT:          0 MISS:          0 MSHR_MERGE:          0
cpu0->cpu0_ITLB WRITE        ACCESS:          0 HIT:          0 MISS:          0 MSHR_MERGE:          0
cpu0->cpu0_ITLB TRANSLATION  ACCESS:          0 HIT:          0 MISS:          0 MSHR_MERGE:          0
cpu0->cpu0_ITLB PREFETCH REQUESTED:          0 ISSUED:          0 USEFUL:          0 USELESS:          0
cpu0->cpu0_ITLB AVERAGE MISS LATENCY: - cycles
cpu0->cpu0_DTLB TOTAL        ACCESS:    7956890 HIT:    7933071 MISS:      23819 MSHR_MERGE:      12704
cpu0->cpu0_DTLB LOAD         ACCESS:    7956890 HIT:    7933071 MISS:      23819 MSHR_MERGE:      12704
cpu0->cpu0_DTLB RFO          ACCESS:          0 HIT:          0 MISS:          0 MSHR_MERGE:          0
cpu0->cpu0_DTLB PREFETCH     ACCESS:          0 HIT:          0 MISS:          0 MSHR_MERGE:          0
cpu0->cpu0_DTLB WRITE        ACCESS:          0 HIT:          0 MISS:          0 MSHR_MERGE:          0
cpu0->cpu0_DTLB TRANSLATION  ACCESS:          0 HIT:          0 MISS:          0 MSHR_MERGE:          0
cpu0->cpu0_DTLB PREFETCH REQUESTED:          0 ISSUED:          0 USEFUL:          0 USELESS:          0
cpu0->cpu0_DTLB AVERAGE MISS LATENCY: 539 cycles
cpu0->LLC TOTAL        ACCESS:    2520592 HIT:      71832 MISS:    2448760 MSHR_MERGE:          0
cpu0->LLC LOAD         ACCESS:      51686 HIT:          0 MISS:      51686 MSHR_MERGE:          0
cpu0->LLC RFO          ACCESS:    1077991 HIT:      21557 MISS:    1056434 MSHR_MERGE:          0
cpu0->LLC PREFETCH     ACCESS:     304070 HIT:          0 MISS:     304070 MSHR_MERGE:          0
cpu0->LLC WRITE        ACCESS:    1078161 HIT:      50275 MISS:    1027886 MSHR_MERGE:          0
cpu0->LLC TRANSLATION  ACCESS:       8684 HIT:          0 MISS:       8684 MSHR_MERGE:          0
cpu0->LLC PREFETCH REQUESTED:          0 ISSUED:          0 USEFUL:          0 USELESS:          0
cpu0->LLC AVERAGE MISS LATENCY: 215.5 cycles

DRAM Statistics

Channel 0 RQ ROW_BUFFER_HIT:      28118
  ROW_BUFFER_MISS:    1392590
  AVG DBUS CONGESTED CYCLE: 11.77
Channel 0 WQ ROW_BUFFER_HIT:     159693
  ROW_BUFFER_MISS:     892214
  FULL:          8
Channel 0 REFRESHES ISSUED:       5018
