[VMEM] WARNING: physical memory size is smaller than virtual memory size.
WARNING: option --warmup_instructions is deprecated. Use --warmup-instructions instead.
WARNING: option --simulation_instructions is deprecated. Use --simulation-instructions instead.

*** ChampSim Multicore Out-of-Order Simulator ***
Warmup Instructions: 20000000
Simulation Instructions: 50000000
Number of CPUs: 1
Page size: 8192

Off-chip DRAM Size: 16 GiB Channels: 1 Width: 64-bit Data Rate: 3205 MT/s
Heartbeat CPU 0 instructions: 10000003 cycles: 6089046 heartbeat IPC: 1.642 cumulative IPC: 1.642 (Simulation time: 00 hr 00 min 52 sec)
Warmup finished CPU 0 instructions: 20000000 cycles: 12023495 cumulative IPC: 1.663 (Simulation time: 00 hr 01 min 48 sec)
Warmup complete CPU 0 instructions: 20000000 cycles: 12023495 cumulative IPC: 1.663 (Simulation time: 00 hr 01 min 48 sec)
Heartbeat CPU 0 instructions: 20000004 cycles: 12023496 heartbeat IPC: 1.685 cumulative IPC: 4 (Simulation time: 00 hr 01 min 48 sec)
Heartbeat CPU 0 instructions: 30000007 cycles: 25637580 heartbeat IPC: 0.7345 cumulative IPC: 0.7345 (Simulation time: 00 hr 03 min 14 sec)
Heartbeat CPU 0 instructions: 40000009 cycles: 34495825 heartbeat IPC: 1.129 cumulative IPC: 0.89 (Simulation time: 00 hr 04 min 15 sec)
Heartbeat CPU 0 instructions: 50000009 cycles: 46078072 heartbeat IPC: 0.8634 cumulative IPC: 0.8809 (Simulation time: 00 hr 05 min 31 sec)
Heartbeat CPU 0 instructions: 60000010 cycles: 62424784 heartbeat IPC: 0.6117 cumulative IPC: 0.7936 (Simulation time: 00 hr 07 min 13 sec)
Simulation finished CPU 0 instructions: 50000001 cycles: 61522209 cumulative IPC: 0.8127 (Simulation time: 00 hr 08 min 25 sec)
Simulation complete CPU 0 instructions: 50000001 cycles: 61522209 cumulative IPC: 0.8127 (Simulation time: 00 hr 08 min 25 sec)

ChampSim completed all CPUs

=== Simulation ===
CPU 0 runs traces/429.mcf-217B.champsimtrace.xz

Region of Interest Statistics

CPU 0 cumulative IPC: 0.8127 instructions: 50000001 cycles: 61522209
CPU 0 Branch Prediction Accuracy: 98.95% MPKI: 1.194 Average ROB Occupancy at Mispredict: 121.6
Branch type MPKI
BRANCH_DIRECT_JUMP: 0
BRANCH_INDIRECT: 0
BRANCH_CONDITIONAL: 1.194
BRANCH_DIRECT_CALL: 0
BRANCH_INDIRECT_CALL: 0
BRANCH_RETURN: 0

cpu0->cpu0_STLB TOTAL        ACCESS:      57997 HIT:      56147 MISS:       1850 MSHR_MERGE:          0
cpu0->cpu0_STLB LOAD         ACCESS:      57997 HIT:      56147 MISS:       1850 MSHR_MERGE:          0
cpu0->cpu0_STLB RFO          ACCESS:          0 HIT:          0 MISS:          0 MSHR_MERGE:          0
cpu0->cpu0_STLB PREFETCH     ACCESS:          0 HIT:          0 MISS:          0 MSHR_MERGE:          0
cpu0->cpu0_STLB WRITE        ACCESS:          0 HIT:          0 MISS:          0 MSHR_MERGE:          0
cpu0->cpu0_STLB TRANSLATION  ACCESS:          0 HIT:          0 MISS:          0 MSHR_MERGE:          0
cpu0->cpu0_STLB PREFETCH REQUESTED:          0 ISSUED:          0 USEFUL:          0 USELESS:          0
cpu0->cpu0_STLB AVERAGE MISS LATENCY: 693.4 cycles
cpu0->cpu0_L2C TOTAL        ACCESS:    9631773 HIT:    5541011 MISS:    4090762 MSHR_MERGE:    1373921
cpu0->cpu0_L2C LOAD         ACCESS:    2598478 HIT:    2100911 MISS:     497567 MSHR_MERGE:     322775
cpu0->cpu0_L2C RFO          ACCESS:       1568 HIT:       1431 MISS:        137 MSHR_MERGE:          0
cpu0->cpu0_L2C PREFETCH     ACCESS:    6932115 HIT:    3342683 MISS:    3589432 MSHR_MERGE:    1051146
cpu0->cpu0_L2C WRITE        ACCESS:      96218 HIT:      95496 MISS:        722 MSHR_MERGE:          0
cpu0->cpu0_L2C TRANSLATION  ACCESS:       3394 HIT:        490 MISS:       2904 MSHR_MERGE:          0
cpu0->cpu0_L2C PREFETCH REQUESTED:    6932190 ISSUED:    6932103 USEFUL:    2404412 USELESS:     133897
cpu0->cpu0_L2C AVERAGE MISS LATENCY: 89.63 cycles
cpu0->cpu0_L1I TOTAL        ACCESS:    9274805 HIT:    9274805 MISS:          0 MSHR_MERGE:          0
cpu0->cpu0_L1I LOAD         ACCESS:    9274805 HIT:    9274805 MISS:          0 MSHR_MERGE:          0
cpu0->cpu0_L1I RFO          ACCESS:          0 HIT:          0 MISS:          0 MSHR_MERGE:          0
cpu0->cpu0_L1I PREFETCH     ACCESS:          0 HIT:          0 MISS:          0 MSHR_MERGE:          0
cpu0->cpu0_L1I WRITE        ACCESS:          0 HIT:          0 MISS:          0 MSHR_MERGE:          0
cpu0->cpu0_L1I TRANSLATION  ACCESS:          0 HIT:          0 MISS:          0 MSHR_MERGE:          0
cpu0->cpu0_L1I PREFETCH REQUESTED:          0 ISSUED:          0 USEFUL:          0 USELESS:          0
cpu0->cpu0_L1I AVERAGE MISS LATENCY: - cycles
cpu0->cpu0_L1D TOTAL        ACCESS:   16461953 HIT:   13756024 MISS:    2705929 MSHR_MERGE:     102456
cpu0->cpu0_L1D LOAD         ACCESS:    8588377 HIT:    5889447 MISS:    2698930 MSHR_MERGE:     100419
cpu0->cpu0_L1D RFO          ACCESS:          0 HIT:          0 MISS:          0 MSHR_MERGE:          0
cpu0->cpu0_L1D PREFETCH     ACCESS:          0 HIT:          0 MISS:          0 MSHR_MERGE:          0
cpu0->cpu0_L1D WRITE        ACCESS:    7869869 HIT:    7866264 MISS:       3605 MSHR_MERGE:       2037
cpu0->cpu0_L1D TRANSLATION  ACCESS:       3707 HIT:        313 MISS:       3394 MSHR_MERGE:          0
cpu0->cpu0_L1D PREFETCH REQUESTED:          0 ISSUED:          0 USEFUL:          0 USELESS:          0
cpu0->cpu0_L1D AVERAGE MISS LATENCY: 25.46 cycles
cpu0->cpu0_ITLB TOTAL        ACCESS:    8097293 HIT:    8097293 MISS:          0 MSHR_MERGE:          0
cpu0->cpu0_ITLB LOAD         ACCESS:    8097293 HIT:    8097293 MISS:          0 MSHR_MERGE:          0
cpu0->cpu0_ITLB RFO          ACCESS:          0 HIT:          0 MISS:          0 MSHR_MERGE:          0
cpu0->cpu0_ITLB PREFETCH     ACCESS:          0 HIT:          0 MISS:          0 MSHR_MERGE:          0
cpu0->cpu0_ITLB WRITE        ACCESS:          0 HIT:          0 MISS:          0 MSHR_MERGE:          0
cpu0->cpu0_ITLB TRANSLATION  ACCESS:          0 HIT:          0 MISS:          0 MSHR_MERGE:          0
cpu0->cpu0_ITLB PREFETCH REQUESTED:          0 ISSUED:          0 USEFUL:          0 USELESS:          0
cpu0->cpu0_ITLB AVERAGE MISS LATENCY: - cycles
cpu0->cpu0_DTLB TOTAL        ACCESS:   14957982 HIT:   14884068 MISS:      73914 MSHR_MERGE:      15917
cpu0->cpu0_DTLB LOAD         ACCESS:   14957982 HIT:   14884068 MISS:      73914 MSHR_MERGE:      15917
cpu0->cpu0_DTLB RFO          ACCESS:          0 HIT:          0 MISS:          0 MSHR_MERGE:          0
cpu0->cpu0_DTLB PREFETCH     ACCESS:          0 HIT:          0 MISS:          0 MSHR_MERGE:          0
cpu0->cpu0_DTLB WRITE        ACCESS:          0 HIT:          0 MISS:          0 MSHR_MERGE:          0
cpu0->cpu0_DTLB TRANSLATION  ACCESS:          0 HIT:          0 MISS:          0 MSHR_MERGE:          0
cpu0->cpu0_DTLB PREFETCH REQUESTED:          0 ISSUED:          0 USEFUL:          0 USELESS:          0
cpu0->cpu0_DTLB AVERAGE MISS LATENCY: 26.15 cycles
cpu0->LLC TOTAL        ACCESS:    2796956 HIT:    1619850 MISS:    1177106 MSHR_MERGE:          0
cpu0->LLC LOAD         ACCESS:     174792 HIT:      47299 MISS:     127493 MSHR_MERGE:          0
cpu0->LLC RFO          ACCESS:        137 HIT:        107 MISS:         30 MSHR_MERGE:          0
cpu0->LLC PREFETCH     ACCESS:    2538285 HIT:    1531276 MISS:    1007009 MSHR_MERGE:          0
cpu0->LLC WRITE        ACCESS:      80838 HIT:      41134 MISS:      39704 MSHR_MERGE:          0
cpu0->LLC TRANSLATION  ACCESS:       2904 HIT:         34 MISS:       2870 MSHR_MERGE:          0
cpu0->LLC PREFETCH REQUESTED:          0 ISSUED:          0 USEFUL:          0 USELESS:          0
cpu0->LLC AVERAGE MISS LATENCY: 117.8 cycles

DRAM Statistics

Channel 0 RQ ROW_BUFFER_HIT:     175632
  ROW_BUFFER_MISS:     961742
  AVG DBUS CONGESTED CYCLE: 10.1
Channel 0 WQ ROW_BUFFER_HIT:      13016
  ROW_BUFFER_MISS:      61856
  FULL:          0
Channel 0 REFRESHES ISSUED:       5127
