[VMEM] WARNING: physical memory size is smaller than virtual memory size.
WARNING: option --warmup_instructions is deprecated. Use --warmup-instructions instead.
WARNING: option --simulation_instructions is deprecated. Use --simulation-instructions instead.

*** ChampSim Multicore Out-of-Order Simulator ***
Warmup Instructions: 20000000
Simulation Instructions: 50000000
Number of CPUs: 1
Page size: 8192

Off-chip DRAM Size: 16 GiB Channels: 1 Width: 64-bit Data Rate: 3205 MT/s
Heartbeat CPU 0 instructions: 10000001 cycles: 2974140 heartbeat IPC: 3.362 cumulative IPC: 3.362 (Simulation time: 00 hr 00 min 29 sec)
Warmup finished CPU 0 instructions: 20000000 cycles: 5936865 cumulative IPC: 3.369 (Simulation time: 00 hr 00 min 59 sec)
Warmup complete CPU 0 instructions: 20000000 cycles: 5936865 cumulative IPC: 3.369 (Simulation time: 00 hr 00 min 59 sec)
Heartbeat CPU 0 instructions: 20000004 cycles: 5936866 heartbeat IPC: 3.375 cumulative IPC: 4 (Simulation time: 00 hr 00 min 59 sec)
Heartbeat CPU 0 instructions: 30000006 cycles: 17707633 heartbeat IPC: 0.8496 cumulative IPC: 0.8496 (Simulation time: 00 hr 02 min 38 sec)
Heartbeat CPU 0 instructions: 40000008 cycles: 29507141 heartbeat IPC: 0.8475 cumulative IPC: 0.8485 (Simulation time: 00 hr 04 min 16 sec)
Heartbeat CPU 0 instructions: 50000009 cycles: 41436681 heartbeat IPC: 0.8383 cumulative IPC: 0.8451 (Simulation time: 00 hr 05 min 55 sec)
Heartbeat CPU 0 instructions: 60000012 cycles: 53197886 heartbeat IPC: 0.8503 cumulative IPC: 0.8464 (Simulation time: 00 hr 07 min 32 sec)
Simulation finished CPU 0 instructions: 50000000 cycles: 59060585 cumulative IPC: 0.8466 (Simulation time: 00 hr 09 min 09 sec)
Simulation complete CPU 0 instructions: 50000000 cycles: 59060585 cumulative IPC: 0.8466 (Simulation time: 00 hr 09 min 09 sec)

ChampSim completed all CPUs

=== Simulation ===
CPU 0 runs traces/470.lbm-1274B.champsimtrace.xz

Region of Interest Statistics

CPU 0 cumulative IPC: 0.8466 instructions: 50000000 cycles: 59060585
CPU 0 Branch Prediction Accuracy: 99.79% MPKI: 0.02864 Average ROB Occupancy at Mispredict: 189.9
Branch type MPKI
BRANCH_DIRECT_JUMP: 0
BRANCH_INDIRECT: 0
BRANCH_CONDITIONAL: 0.02864
BRANCH_DIRECT_CALL: 0
BRANCH_INDIRECT_CALL: 0
BRANCH_RETURN: 0

cpu0->cpu0_STLB TOTAL        ACCESS:      11115 HIT:       5557 MISS:       5558 MSHR_MERGE:          0
cpu0->cpu0_STLB LOAD         ACCESS:      11115 HIT:       5557 MISS:       5558 MSHR_MERGE:          0
cpu0->cpu0_STLB RFO          ACCESS:          0 HIT:          0 MISS:          0 MSHR_MERGE:          0
cpu0->cpu0_STLB PREFETCH     ACCESS:          0 HIT:          0 MISS:          0 MSHR_MERGE:          0
cpu0->cpu0_STLB WRITE        ACCESS:          0 HIT:          0 MISS:          0 MSHR_MERGE:          0
cpu0->cpu0_STLB TRANSLATION  ACCESS:          0 HIT:          0 MISS:          0 MSHR_MERGE:          0
cpu0->cpu0_STLB PREFETCH REQUESTED:          0 ISSUED:          0 USEFUL:          0 USELESS:          0
cpu0->cpu0_STLB AVERAGE MISS LATENCY: 1183 cycles
cpu0->cpu0_L2C TOTAL        ACCESS:    4879497 HIT:    3359113 MISS:    1520384 MSHR_MERGE:      77890
cpu0->cpu0_L2C LOAD         ACCESS:     355730 HIT:     244827 MISS:     110903 MSHR_MERGE:      42669
cpu0->cpu0_L2C RFO          ACCESS:    2002632 HIT:     924576 MISS:    1078056 MSHR_MERGE:          0
cpu0->cpu0_L2C PREFETCH     ACCESS:     507269 HIT:     184543 MISS:     322726 MSHR_MERGE:      35221
cpu0->cpu0_L2C WRITE        ACCESS:    2002738 HIT:    2002723 MISS:         15 MSHR_MERGE:          0
cpu0->cpu0_L2C TRANSLATION  ACCESS:      11128 HIT:       2444 MISS:       8684 MSHR_MERGE:          0
cpu0->cpu0_L2C PREFETCH REQUESTED:     507269 ISSUED:     507269 USEFUL:     287496 USELESS:         18
cpu0->cpu0_L2C AVERAGE MISS LATENCY: 460.6 cycles
cpu0->cpu0_L1I TOTAL        ACCESS:    8519432 HIT:    8519432 MISS:          0 MSHR_MERGE:          0
cpu0->cpu0_L1I LOAD         ACCESS:    8519432 HIT:    8519432 MISS:          0 MSHR_MERGE:          0
cpu0->cpu0_L1I RFO          ACCESS:          0 HIT:          0 MISS:          0 MSHR_MERGE:          0
cpu0->cpu0_L1I PREFETCH     ACCESS:          0 HIT:          0 MISS:          0 MSHR_MERGE:          0
cpu0->cpu0_L1I WRITE        ACCESS:          0 HIT:          0 MISS:          0 MSHR_MERGE:          0
cpu0->cpu0_L1I TRANSLATION  ACCESS:          0 HIT:          0 MISS:          0 MSHR_MERGE:          0
cpu0->cpu0_L1I PREFETCH REQUESTED:          0 ISSUED:          0 USEFUL:          0 USELESS:          0
cpu0->cpu0_L1I AVERAGE MISS LATENCY: - cycles
cpu0->cpu0_L1D TOTAL        ACCESS:    7282233 HIT:    4814060 MISS:    2468173 MSHR_MERGE:      98578
cpu0->cpu0_L1D LOAD         ACCESS:    2247586 HIT:    1848337 MISS:     399249 MSHR_MERGE:      43519
cpu0->cpu0_L1D RFO          ACCESS:          0 HIT:          0 MISS:          0 MSHR_MERGE:          0
cpu0->cpu0_L1D PREFETCH     ACCESS:          0 HIT:          0 MISS:          0 MSHR_MERGE:          0
cpu0->cpu0_L1D WRITE        ACCESS:    5023519 HIT:    2965723 MISS:    2057796 MSHR_MERGE:      55059
cpu0->cpu0_L1D TRANSLATION  ACCESS:      11128 HIT:          0 MISS:      11128 MSHR_MERGE:          0
cpu0->cpu0_L1D PREFETCH REQUESTED:          0 ISSUED:          0 USEFUL:          0 USELESS:          0
cpu0->cpu0_L1D AVERAGE MISS LATENCY: 260.1 cycles
cpu0->cpu0_ITLB TOTAL        ACCESS:    7005416 HIT:    7005416 MISS:          0 MSHR_MERGE:          0
cpu0->cpu0_ITLB LOAD         ACCESS:    7005416 HIT:    7005416 MISS:          0 MSHR_MERGE:          0
cpu0->cpu0_ITLB RFO          ACCESS:          0 HIT:          0 MISS:          0 MSHR_MERGE:          0
cpu0->cpu0_ITLB PREFETCH     ACCESS:          0 HIT:          0 MISS:          0 MSHR_MERGE:          0
cpu0->cpu0_ITLB WRITE        ACCESS:          0 HIT:          0 MISS:          0 MSHR_MERGE:          0
cpu0->cpu0_ITLB TRANSLATION  ACCESS:          0 HIT:          0 MISS:          0 MSHR_MERGE:          0
cpu0->cpu0_ITLB PREFETCH REQUESTED:          0 ISSUED:          0 USEFUL:          0 USELESS:          0
cpu0->cpu0_ITLB AVERAGE MISS LATENCY: - cycles
cpu0->cpu0_DTLB TOTAL        ACCESS:    6788265 HIT:    6764081 MISS:      24184 MSHR_MERGE:      13069
cpu0->cpu0_DTLB LOAD         ACCESS:    6788265 HIT:    6764081 MISS:      24184 MSHR_MERGE:      13069
cpu0->cpu0_DTLB RFO          ACCESS:          0 HIT:          0 MISS:          0 MSHR_MERGE:          0
cpu0->cpu0_DTLB PREFETCH     ACCESS:          0 HIT:          0 MISS:          0 MSHR_MERGE:          0
cpu0->cpu0_DTLB WRITE        ACCESS:          0 HIT:          0 MISS:          0 MSHR_MERGE:          0
cpu0->cpu0_DTLB TRANSLATION  ACCESS:          0 HIT:          0 MISS:          0 MSHR_MERGE:          0
cpu0->cpu0_DTLB PREFETCH REQUESTED:          0 ISSUED:          0 USEFUL:          0 USELESS:          0
cpu0->cpu0_DTLB AVERAGE MISS LATENCY: 596 cycles
cpu0->LLC TOTAL        ACCESS:    2520705 HIT:     226471 MISS:    2294234 MSHR_MERGE:          0
cpu0->LLC LOAD         ACCESS:      68234 HIT:          0 MISS:      68234 MSHR_MERGE:          0
cpu0->LLC RFO          ACCESS:    1078055 HIT:      22760 MISS:    1055295 MSHR_MERGE:          0
cpu0->LLC PREFETCH     ACCESS:     287505 HIT:          0 MISS:     287505 MSHR_MERGE:          0
cpu0->LLC WRITE        ACCESS:    1078227 HIT:     203711 MISS:     874516 MSHR_MERGE:          0
cpu0->LLC TRANSLATION  ACCESS:       8684 HIT:          0 MISS:       8684 MSHR_MERGE:          0
cpu0->LLC PREFETCH REQUESTED:          0 ISSUED:          0 USEFUL:          0 USELESS:          0
cpu0->LLC AVERAGE MISS LATENCY: 263 cycles

DRAM Statistics

Channel 0 RQ ROW_BUFFER_HIT:      34251
  ROW_BUFFER_MISS:    1385366
  AVG DBUS CONGESTED CYCLE: 11.75
Channel 0 WQ ROW_BUFFER_HIT:     154261
  ROW_BUFFER_MISS:     895830
  FULL:          0
Channel 0 REFRESHES ISSUED:       4922
