[VMEM] WARNING: physical memory size is smaller than virtual memory size.
WARNING: option --warmup_instructions is deprecated. Use --warmup-instructions instead.
WARNING: option --simulation_instructions is deprecated. Use --simulation-instructions instead.

*** ChampSim Multicore Out-of-Order Simulator ***
Warmup Instructions: 20000000
Simulation Instructions: 50000000
Number of CPUs: 1
Page size: 8192

Off-chip DRAM Size: 16 GiB Channels: 1 Width: 64-bit Data Rate: 3205 MT/s
Heartbeat CPU 0 instructions: 10000000 cycles: 6990844 heartbeat IPC: 1.43 cumulative IPC: 1.43 (Simulation time: 00 hr 01 min 13 sec)
Heartbeat CPU 0 instructions: 20000001 cycles: 11066646 heartbeat IPC: 2.454 cumulative IPC: 1.807 (Simulation time: 00 hr 02 min 10 sec)
Warmup finished CPU 0 instructions: 20000001 cycles: 11066646 cumulative IPC: 1.807 (Simulation time: 00 hr 02 min 10 sec)
Warmup complete CPU 0 instructions: 20000001 cycles: 11066646 cumulative IPC: 1.807 (Simulation time: 00 hr 02 min 10 sec)
Heartbeat CPU 0 instructions: 30000003 cycles: 57328957 heartbeat IPC: 0.2162 cumulative IPC: 0.2162 (Simulation time: 00 hr 06 min 48 sec)
Heartbeat CPU 0 instructions: 40000005 cycles: 104409853 heartbeat IPC: 0.2124 cumulative IPC: 0.2143 (Simulation time: 00 hr 11 min 23 sec)
Heartbeat CPU 0 instructions: 50000006 cycles: 151587130 heartbeat IPC: 0.212 cumulative IPC: 0.2135 (Simulation time: 00 hr 15 min 56 sec)
Heartbeat CPU 0 instructions: 60000007 cycles: 198596066 heartbeat IPC: 0.2127 cumulative IPC: 0.2133 (Simulation time: 00 hr 20 min 16 sec)
Simulation finished CPU 0 instructions: 50000002 cycles: 235881134 cumulative IPC: 0.212 (Simulation time: 00 hr 24 min 40 sec)
Simulation complete CPU 0 instructions: 50000002 cycles: 235881134 cumulative IPC: 0.212 (Simulation time: 00 hr 24 min 40 sec)

ChampSim completed all CPUs

=== Simulation ===
CPU 0 runs traces/473.astar-359B.champsimtrace.xz

Region of Interest Statistics

CPU 0 cumulative IPC: 0.212 instructions: 50000002 cycles: 235881134
CPU 0 Branch Prediction Accuracy: 93.2% MPKI: 13.43 Average ROB Occupancy at Mispredict: 44.39
Branch type MPKI
BRANCH_DIRECT_JUMP: 0
BRANCH_INDIRECT: 0
BRANCH_CONDITIONAL: 13.42
BRANCH_DIRECT_CALL: 0
BRANCH_INDIRECT_CALL: 0.00054
BRANCH_RETURN: 0

cpu0->cpu0_STLB TOTAL        ACCESS:    1275525 HIT:     889262 MISS:     386263 MSHR_MERGE:          0
cpu0->cpu0_STLB LOAD         ACCESS:    1275525 HIT:     889262 MISS:     386263 MSHR_MERGE:          0
cpu0->cpu0_STLB RFO          ACCESS:          0 HIT:          0 MISS:          0 MSHR_MERGE:          0
cpu0->cpu0_STLB PREFETCH     ACCESS:          0 HIT:          0 MISS:          0 MSHR_MERGE:          0
cpu0->cpu0_STLB WRITE        ACCESS:          0 HIT:          0 MISS:          0 MSHR_MERGE:          0
cpu0->cpu0_STLB TRANSLATION  ACCESS:          0 HIT:          0 MISS:          0 MSHR_MERGE:          0
cpu0->cpu0_STLB PREFETCH REQUESTED:          0 ISSUED:          0 USEFUL:          0 USELESS:          0
cpu0->cpu0_STLB AVERAGE MISS LATENCY: 560.2 cycles
cpu0->cpu0_L2C TOTAL        ACCESS:    6333535 HIT:    2892466 MISS:    3441069 MSHR_MERGE:      93027
cpu0->cpu0_L2C LOAD         ACCESS:    1775436 HIT:     936126 MISS:     839310 MSHR_MERGE:      19878
cpu0->cpu0_L2C RFO          ACCESS:     767629 HIT:      40843 MISS:     726786 MSHR_MERGE:          0
cpu0->cpu0_L2C PREFETCH     ACCESS:    1971514 HIT:     741422 MISS:    1230092 MSHR_MERGE:      73149
cpu0->cpu0_L2C WRITE        ACCESS:    1168858 HIT:    1168425 MISS:        433 MSHR_MERGE:          0
cpu0->cpu0_L2C TRANSLATION  ACCESS:     650098 HIT:       5650 MISS:     644448 MSHR_MERGE:          0
cpu0->cpu0_L2C PREFETCH REQUESTED:    1975544 ISSUED:    1971514 USEFUL:     315668 USELESS:     718803
cpu0->cpu0_L2C AVERAGE MISS LATENCY: 228.3 cycles
cpu0->cpu0_L1I TOTAL        ACCESS:     845570 HIT:     845563 MISS:          7 MSHR_MERGE:          0
cpu0->cpu0_L1I LOAD         ACCESS:     845570 HIT:     845563 MISS:          7 MSHR_MERGE:          0
cpu0->cpu0_L1I RFO          ACCESS:          0 HIT:          0 MISS:          0 MSHR_MERGE:          0
cpu0->cpu0_L1I PREFETCH     ACCESS:          0 HIT:          0 MISS:          0 MSHR_MERGE:          0
cpu0->cpu0_L1I WRITE        ACCESS:          0 HIT:          0 MISS:          0 MSHR_MERGE:          0
cpu0->cpu0_L1I TRANSLATION  ACCESS:          0 HIT:          0 MISS:          0 MSHR_MERGE:          0
cpu0->cpu0_L1I PREFETCH REQUESTED:          0 ISSUED:          0 USEFUL:          0 USELESS:          0
cpu0->cpu0_L1I AVERAGE MISS LATENCY: 127 cycles
cpu0->cpu0_L1D TOTAL        ACCESS:   19830336 HIT:   15980648 MISS:    3849688 MSHR_MERGE:     656529
cpu0->cpu0_L1D LOAD         ACCESS:   12738311 HIT:   10402529 MISS:    2335782 MSHR_MERGE:     560351
cpu0->cpu0_L1D RFO          ACCESS:          0 HIT:          0 MISS:          0 MSHR_MERGE:          0
cpu0->cpu0_L1D PREFETCH     ACCESS:          0 HIT:          0 MISS:          0 MSHR_MERGE:          0
cpu0->cpu0_L1D WRITE        ACCESS:    6314486 HIT:    5546760 MISS:     767726 MSHR_MERGE:         96
cpu0->cpu0_L1D TRANSLATION  ACCESS:     777539 HIT:      31359 MISS:     746180 MSHR_MERGE:      96082
cpu0->cpu0_L1D PREFETCH REQUESTED:          0 ISSUED:          0 USEFUL:          0 USELESS:          0
cpu0->cpu0_L1D AVERAGE MISS LATENCY: 167.4 cycles
cpu0->cpu0_ITLB TOTAL        ACCESS:     843277 HIT:     843277 MISS:          0 MSHR_MERGE:          0
cpu0->cpu0_ITLB LOAD         ACCESS:     843277 HIT:     843277 MISS:          0 MSHR_MERGE:          0
cpu0->cpu0_ITLB RFO          ACCESS:          0 HIT:          0 MISS:          0 MSHR_MERGE:          0
cpu0->cpu0_ITLB PREFETCH     ACCESS:          0 HIT:          0 MISS:          0 MSHR_MERGE:          0
cpu0->cpu0_ITLB WRITE        ACCESS:          0 HIT:          0 MISS:          0 MSHR_MERGE:          0
cpu0->cpu0_ITLB TRANSLATION  ACCESS:          0 HIT:          0 MISS:          0 MSHR_MERGE:          0
cpu0->cpu0_ITLB PREFETCH REQUESTED:          0 ISSUED:          0 USEFUL:          0 USELESS:          0
cpu0->cpu0_ITLB AVERAGE MISS LATENCY: - cycles
cpu0->cpu0_DTLB TOTAL        ACCESS:   18129022 HIT:   16243799 MISS:    1885223 MSHR_MERGE:     609698
cpu0->cpu0_DTLB LOAD         ACCESS:   18129022 HIT:   16243799 MISS:    1885223 MSHR_MERGE:     609698
cpu0->cpu0_DTLB RFO          ACCESS:          0 HIT:          0 MISS:          0 MSHR_MERGE:          0
cpu0->cpu0_DTLB PREFETCH     ACCESS:          0 HIT:          0 MISS:          0 MSHR_MERGE:          0
cpu0->cpu0_DTLB WRITE        ACCESS:          0 HIT:          0 MISS:          0 MSHR_MERGE:          0
cpu0->cpu0_DTLB TRANSLATION  ACCESS:          0 HIT:          0 MISS:          0 MSHR_MERGE:          0
cpu0->cpu0_DTLB PREFETCH REQUESTED:          0 ISSUED:          0 USEFUL:          0 USELESS:          0
cpu0->cpu0_DTLB AVERAGE MISS LATENCY: 174 cycles
cpu0->LLC TOTAL        ACCESS:    4477017 HIT:    1145359 MISS:    3331658 MSHR_MERGE:      30864
cpu0->LLC LOAD         ACCESS:     819432 HIT:     273924 MISS:     545508 MSHR_MERGE:       2505
cpu0->LLC RFO          ACCESS:     726784 HIT:     243550 MISS:     483234 MSHR_MERGE:          0
cpu0->LLC PREFETCH     ACCESS:    1156943 HIT:     137252 MISS:    1019691 MSHR_MERGE:      28359
cpu0->LLC WRITE        ACCESS:    1129410 HIT:     438181 MISS:     691229 MSHR_MERGE:          0
cpu0->LLC TRANSLATION  ACCESS:     644448 HIT:      52452 MISS:     591996 MSHR_MERGE:          0
cpu0->LLC PREFETCH REQUESTED:          0 ISSUED:          0 USEFUL:          0 USELESS:          0
cpu0->LLC AVERAGE MISS LATENCY: 204.1 cycles

DRAM Statistics

Channel 0 RQ ROW_BUFFER_HIT:      67660
  ROW_BUFFER_MISS:    2539569
  AVG DBUS CONGESTED CYCLE: 18.97
Channel 0 WQ ROW_BUFFER_HIT:     124782
  ROW_BUFFER_MISS:     606710
  FULL:         39
Channel 0 REFRESHES ISSUED:      19656
