[VMEM] WARNING: physical memory size is smaller than virtual memory size.
WARNING: option --warmup_instructions is deprecated. Use --warmup-instructions instead.
WARNING: option --simulation_instructions is deprecated. Use --simulation-instructions instead.

*** ChampSim Multicore Out-of-Order Simulator ***
Warmup Instructions: 20000000
Simulation Instructions: 50000000
Number of CPUs: 1
Page size: 8192

Off-chip DRAM Size: 16 GiB Channels: 1 Width: 64-bit Data Rate: 3205 MT/s
Heartbeat CPU 0 instructions: 10000000 cycles: 4304080 heartbeat IPC: 2.323 cumulative IPC: 2.323 (Simulation time: 00 hr 00 min 52 sec)
Heartbeat CPU 0 instructions: 20000000 cycles: 8600022 heartbeat IPC: 2.328 cumulative IPC: 2.326 (Simulation time: 00 hr 01 min 44 sec)
Warmup finished CPU 0 instructions: 20000000 cycles: 8600022 cumulative IPC: 2.326 (Simulation time: 00 hr 01 min 44 sec)
Warmup complete CPU 0 instructions: 20000000 cycles: 8600022 cumulative IPC: 2.326 (Simulation time: 00 hr 01 min 44 sec)
Heartbeat CPU 0 instructions: 30000003 cycles: 16374373 heartbeat IPC: 1.286 cumulative IPC: 1.286 (Simulation time: 00 hr 03 min 00 sec)
Heartbeat CPU 0 instructions: 40000003 cycles: 24143866 heartbeat IPC: 1.287 cumulative IPC: 1.287 (Simulation time: 00 hr 04 min 13 sec)
Heartbeat CPU 0 instructions: 50000003 cycles: 31889752 heartbeat IPC: 1.291 cumulative IPC: 1.288 (Simulation time: 00 hr 05 min 26 sec)
Heartbeat CPU 0 instructions: 60000005 cycles: 39667823 heartbeat IPC: 1.286 cumulative IPC: 1.288 (Simulation time: 00 hr 06 min 39 sec)
Simulation finished CPU 0 instructions: 50000000 cycles: 38830431 cumulative IPC: 1.288 (Simulation time: 00 hr 07 min 52 sec)
Simulation complete CPU 0 instructions: 50000000 cycles: 38830431 cumulative IPC: 1.288 (Simulation time: 00 hr 07 min 52 sec)

ChampSim completed all CPUs

=== Simulation ===
CPU 0 runs traces/603.bwaves_s-1740B.champsimtrace.xz

Region of Interest Statistics

CPU 0 cumulative IPC: 1.288 instructions: 50000000 cycles: 38830431
CPU 0 Branch Prediction Accuracy: 99.97% MPKI: 0.00734 Average ROB Occupancy at Mispredict: 189.9
Branch type MPKI
BRANCH_DIRECT_JUMP: 0
BRANCH_INDIRECT: 0
BRANCH_CONDITIONAL: 0.00734
BRANCH_DIRECT_CALL: 0
BRANCH_INDIRECT_CALL: 0
BRANCH_RETURN: 0

cpu0->cpu0_STLB TOTAL        ACCESS:       7425 HIT:        365 MISS:       7060 MSHR_MERGE:          0
cpu0->cpu0_STLB LOAD         ACCESS:       7425 HIT:        365 MISS:       7060 MSHR_MERGE:          0
cpu0->cpu0_STLB RFO          ACCESS:          0 HIT:          0 MISS:          0 MSHR_MERGE:          0
cpu0->cpu0_STLB PREFETCH     ACCESS:          0 HIT:          0 MISS:          0 MSHR_MERGE:          0
cpu0->cpu0_STLB WRITE        ACCESS:          0 HIT:          0 MISS:          0 MSHR_MERGE:          0
cpu0->cpu0_STLB TRANSLATION  ACCESS:          0 HIT:          0 MISS:          0 MSHR_MERGE:          0
cpu0->cpu0_STLB PREFETCH REQUESTED:          0 ISSUED:          0 USEFUL:          0 USELESS:          0
cpu0->cpu0_STLB AVERAGE MISS LATENCY: 692.4 cycles
cpu0->cpu0_L2C TOTAL        ACCESS:    4019787 HIT:    2180963 MISS:    1838824 MSHR_MERGE:     613874
cpu0->cpu0_L2C LOAD         ACCESS:    1020071 HIT:     985933 MISS:      34138 MSHR_MERGE:      17087
cpu0->cpu0_L2C RFO          ACCESS:      32721 HIT:       8359 MISS:      24362 MSHR_MERGE:          0
cpu0->cpu0_L2C PREFETCH     ACCESS:    2916969 HIT:    1147123 MISS:    1769846 MSHR_MERGE:     596787
cpu0->cpu0_L2C WRITE        ACCESS:      36472 HIT:      36435 MISS:         37 MSHR_MERGE:          0
cpu0->cpu0_L2C TRANSLATION  ACCESS:      13554 HIT:       3113 MISS:      10441 MSHR_MERGE:          0
cpu0->cpu0_L2C PREFETCH REQUESTED:    3142440 ISSUED:    2916961 USEFUL:     916051 USELESS:        249
cpu0->cpu0_L2C AVERAGE MISS LATENCY: 145.9 cycles
cpu0->cpu0_L1I TOTAL        ACCESS:   12011362 HIT:   12011362 MISS:          0 MSHR_MERGE:          0
cpu0->cpu0_L1I LOAD         ACCESS:   12011362 HIT:   12011362 MISS:          0 MSHR_MERGE:          0
cpu0->cpu0_L1I RFO          ACCESS:          0 HIT:          0 MISS:          0 MSHR_MERGE:          0
cpu0->cpu0_L1I PREFETCH     ACCESS:          0 HIT:          0 MISS:          0 MSHR_MERGE:          0
cpu0->cpu0_L1I WRITE        ACCESS:          0 HIT:          0 MISS:          0 MSHR_MERGE:          0
cpu0->cpu0_L1I TRANSLATION  ACCESS:          0 HIT:          0 MISS:          0 MSHR_MERGE:          0
cpu0->cpu0_L1I PREFETCH REQUESTED:          0 ISSUED:          0 USEFUL:          0 USELESS:          0
cpu0->cpu0_L1I AVERAGE MISS LATENCY: - cycles
cpu0->cpu0_L1D TOTAL        ACCESS:   16973180 HIT:   15871137 MISS:    1102043 MSHR_MERGE:      35561
cpu0->cpu0_L1D LOAD         ACCESS:   14142427 HIT:   13114676 MISS:    1027751 MSHR_MERGE:       7619
cpu0->cpu0_L1D RFO          ACCESS:          0 HIT:          0 MISS:          0 MSHR_MERGE:          0
cpu0->cpu0_L1D PREFETCH     ACCESS:          0 HIT:          0 MISS:          0 MSHR_MERGE:          0
cpu0->cpu0_L1D WRITE        ACCESS:    2816699 HIT:    2756185 MISS:      60514 MSHR_MERGE:      27718
cpu0->cpu0_L1D TRANSLATION  ACCESS:      14054 HIT:        276 MISS:      13778 MSHR_MERGE:        224
cpu0->cpu0_L1D PREFETCH REQUESTED:          0 ISSUED:          0 USEFUL:          0 USELESS:          0
cpu0->cpu0_L1D AVERAGE MISS LATENCY: 19.46 cycles
cpu0->cpu0_ITLB TOTAL        ACCESS:   10875567 HIT:   10875567 MISS:          0 MSHR_MERGE:          0
cpu0->cpu0_ITLB LOAD         ACCESS:   10875567 HIT:   10875567 MISS:          0 MSHR_MERGE:          0
cpu0->cpu0_ITLB RFO          ACCESS:          0 HIT:          0 MISS:          0 MSHR_MERGE:          0
cpu0->cpu0_ITLB PREFETCH     ACCESS:          0 HIT:          0 MISS:          0 MSHR_MERGE:          0
cpu0->cpu0_ITLB WRITE        ACCESS:          0 HIT:          0 MISS:          0 MSHR_MERGE:          0
cpu0->cpu0_ITLB TRANSLATION  ACCESS:          0 HIT:          0 MISS:          0 MSHR_MERGE:          0
cpu0->cpu0_ITLB PREFETCH REQUESTED:          0 ISSUED:          0 USEFUL:          0 USELESS:          0
cpu0->cpu0_ITLB AVERAGE MISS LATENCY: - cycles
cpu0->cpu0_DTLB TOTAL        ACCESS:   16329641 HIT:   16316798 MISS:      12843 MSHR_MERGE:       5418
cpu0->cpu0_DTLB LOAD         ACCESS:   16329641 HIT:   16316798 MISS:      12843 MSHR_MERGE:       5418
cpu0->cpu0_DTLB RFO          ACCESS:          0 HIT:          0 MISS:          0 MSHR_MERGE:          0
cpu0->cpu0_DTLB PREFETCH     ACCESS:          0 HIT:          0 MISS:          0 MSHR_MERGE:          0
cpu0->cpu0_DTLB WRITE        ACCESS:          0 HIT:          0 MISS:          0 MSHR_MERGE:          0
cpu0->cpu0_DTLB TRANSLATION  ACCESS:          0 HIT:          0 MISS:          0 MSHR_MERGE:          0
cpu0->cpu0_DTLB PREFETCH REQUESTED:          0 ISSUED:          0 USEFUL:          0 USELESS:          0
cpu0->cpu0_DTLB AVERAGE MISS LATENCY: 663.3 cycles
cpu0->LLC TOTAL        ACCESS:    1249444 HIT:     199389 MISS:    1050055 MSHR_MERGE:      36835
cpu0->LLC LOAD         ACCESS:      17051 HIT:       6840 MISS:      10211 MSHR_MERGE:         76
cpu0->LLC RFO          ACCESS:      24362 HIT:          0 MISS:      24362 MSHR_MERGE:          0
cpu0->LLC PREFETCH     ACCESS:    1173059 HIT:     189754 MISS:     983305 MSHR_MERGE:      36759
cpu0->LLC WRITE        ACCESS:      24531 HIT:       2789 MISS:      21742 MSHR_MERGE:          0
cpu0->LLC TRANSLATION  ACCESS:      10441 HIT:          6 MISS:      10435 MSHR_MERGE:          0
cpu0->LLC PREFETCH REQUESTED:          0 ISSUED:          0 USEFUL:          0 USELESS:          0
cpu0->LLC AVERAGE MISS LATENCY: 116.2 cycles

DRAM Statistics

Channel 0 RQ ROW_BUFFER_HIT:      19167
  ROW_BUFFER_MISS:     972310
  AVG DBUS CONGESTED CYCLE: 4.111
Channel 0 WQ ROW_BUFFER_HIT:       1646
  ROW_BUFFER_MISS:      24227
  FULL:          0
Channel 0 REFRESHES ISSUED:       3236
