[VMEM] WARNING: physical memory size is smaller than virtual memory size.
WARNING: option --warmup_instructions is deprecated. Use --warmup-instructions instead.
WARNING: option --simulation_instructions is deprecated. Use --simulation-instructions instead.

*** ChampSim Multicore Out-of-Order Simulator ***
Warmup Instructions: 20000000
Simulation Instructions: 50000000
Number of CPUs: 1
Page size: 8192

Off-chip DRAM Size: 16 GiB Channels: 1 Width: 64-bit Data Rate: 3205 MT/s
Heartbeat CPU 0 instructions: 10000000 cycles: 8634475 heartbeat IPC: 1.158 cumulative IPC: 1.158 (Simulation time: 00 hr 01 min 02 sec)
Heartbeat CPU 0 instructions: 20000001 cycles: 13607386 heartbeat IPC: 2.011 cumulative IPC: 1.47 (Simulation time: 00 hr 01 min 47 sec)
Warmup finished CPU 0 instructions: 20000001 cycles: 13607386 cumulative IPC: 1.47 (Simulation time: 00 hr 01 min 47 sec)
Warmup complete CPU 0 instructions: 20000001 cycles: 13607386 cumulative IPC: 1.47 (Simulation time: 00 hr 01 min 47 sec)
Heartbeat CPU 0 instructions: 30000003 cycles: 60554125 heartbeat IPC: 0.213 cumulative IPC: 0.213 (Simulation time: 00 hr 05 min 09 sec)
Heartbeat CPU 0 instructions: 40000005 cycles: 107830392 heartbeat IPC: 0.2115 cumulative IPC: 0.2123 (Simulation time: 00 hr 08 min 49 sec)
Heartbeat CPU 0 instructions: 50000006 cycles: 155262677 heartbeat IPC: 0.2108 cumulative IPC: 0.2118 (Simulation time: 00 hr 12 min 23 sec)
Heartbeat CPU 0 instructions: 60000007 cycles: 201752106 heartbeat IPC: 0.2151 cumulative IPC: 0.2126 (Simulation time: 00 hr 15 min 48 sec)
Simulation finished CPU 0 instructions: 50000002 cycles: 236009636 cumulative IPC: 0.2119 (Simulation time: 00 hr 19 min 35 sec)
Simulation complete CPU 0 instructions: 50000002 cycles: 236009636 cumulative IPC: 0.2119 (Simulation time: 00 hr 19 min 35 sec)

ChampSim completed all CPUs

=== Simulation ===
CPU 0 runs traces/473.astar-359B.champsimtrace.xz

Region of Interest Statistics

CPU 0 cumulative IPC: 0.2119 instructions: 50000002 cycles: 236009636
CPU 0 Branch Prediction Accuracy: 93.2% MPKI: 13.43 Average ROB Occupancy at Mispredict: 41.93
Branch type MPKI
BRANCH_DIRECT_JUMP: 0
BRANCH_INDIRECT: 0
BRANCH_CONDITIONAL: 13.42
BRANCH_DIRECT_CALL: 0
BRANCH_INDIRECT_CALL: 0.00054
BRANCH_RETURN: 0

cpu0->cpu0_STLB TOTAL        ACCESS:    1275630 HIT:     889366 MISS:     386264 MSHR_MERGE:          0
cpu0->cpu0_STLB LOAD         ACCESS:    1275630 HIT:     889366 MISS:     386264 MSHR_MERGE:          0
cpu0->cpu0_STLB RFO          ACCESS:          0 HIT:          0 MISS:          0 MSHR_MERGE:          0
cpu0->cpu0_STLB PREFETCH     ACCESS:          0 HIT:          0 MISS:          0 MSHR_MERGE:          0
cpu0->cpu0_STLB WRITE        ACCESS:          0 HIT:          0 MISS:          0 MSHR_MERGE:          0
cpu0->cpu0_STLB TRANSLATION  ACCESS:          0 HIT:          0 MISS:          0 MSHR_MERGE:          0
cpu0->cpu0_STLB PREFETCH REQUESTED:          0 ISSUED:          0 USEFUL:          0 USELESS:          0
cpu0->cpu0_STLB AVERAGE MISS LATENCY: 528.7 cycles
cpu0->cpu0_L2C TOTAL        ACCESS:    6082679 HIT:    2798586 MISS:    3284093 MSHR_MERGE:      89497
cpu0->cpu0_L2C LOAD         ACCESS:    1775425 HIT:     905624 MISS:     869801 MSHR_MERGE:      41907
cpu0->cpu0_L2C RFO          ACCESS:     767640 HIT:      43420 MISS:     724220 MSHR_MERGE:          0
cpu0->cpu0_L2C PREFETCH     ACCESS:    1721443 HIT:     675070 MISS:    1046373 MSHR_MERGE:      47590
cpu0->cpu0_L2C WRITE        ACCESS:    1168872 HIT:    1168627 MISS:        245 MSHR_MERGE:          0
cpu0->cpu0_L2C TRANSLATION  ACCESS:     649299 HIT:       5845 MISS:     643454 MSHR_MERGE:          0
cpu0->cpu0_L2C PREFETCH REQUESTED:    1721443 ISSUED:    1721443 USEFUL:     302882 USELESS:     697213
cpu0->cpu0_L2C AVERAGE MISS LATENCY: 226.4 cycles
cpu0->cpu0_L1I TOTAL        ACCESS:     975285 HIT:     975278 MISS:          7 MSHR_MERGE:          0
cpu0->cpu0_L1I LOAD         ACCESS:     975285 HIT:     975278 MISS:          7 MSHR_MERGE:          0
cpu0->cpu0_L1I RFO          ACCESS:          0 HIT:          0 MISS:          0 MSHR_MERGE:          0
cpu0->cpu0_L1I PREFETCH     ACCESS:          0 HIT:          0 MISS:          0 MSHR_MERGE:          0
cpu0->cpu0_L1I WRITE        ACCESS:          0 HIT:          0 MISS:          0 MSHR_MERGE:          0
cpu0->cpu0_L1I TRANSLATION  ACCESS:          0 HIT:          0 MISS:          0 MSHR_MERGE:          0
cpu0->cpu0_L1I PREFETCH REQUESTED:          0 ISSUED:          0 USEFUL:          0 USELESS:          0
cpu0->cpu0_L1I AVERAGE MISS LATENCY: 128.6 cycles
cpu0->cpu0_L1D TOTAL        ACCESS:   19875354 HIT:   15946970 MISS:    3928384 MSHR_MERGE:     736025
cpu0->cpu0_L1D LOAD         ACCESS:   12784210 HIT:   10365691 MISS:    2418519 MSHR_MERGE:     643099
cpu0->cpu0_L1D RFO          ACCESS:          0 HIT:          0 MISS:          0 MSHR_MERGE:          0
cpu0->cpu0_L1D PREFETCH     ACCESS:          0 HIT:          0 MISS:          0 MSHR_MERGE:          0
cpu0->cpu0_L1D WRITE        ACCESS:    6314830 HIT:    5547097 MISS:     767733 MSHR_MERGE:         93
cpu0->cpu0_L1D TRANSLATION  ACCESS:     776314 HIT:      34182 MISS:     742132 MSHR_MERGE:      92833
cpu0->cpu0_L1D PREFETCH REQUESTED:          0 ISSUED:          0 USEFUL:          0 USELESS:          0
cpu0->cpu0_L1D AVERAGE MISS LATENCY: 168 cycles
cpu0->cpu0_ITLB TOTAL        ACCESS:     951526 HIT:     951526 MISS:          0 MSHR_MERGE:          0
cpu0->cpu0_ITLB LOAD         ACCESS:     951526 HIT:     951526 MISS:          0 MSHR_MERGE:          0
cpu0->cpu0_ITLB RFO          ACCESS:          0 HIT:          0 MISS:          0 MSHR_MERGE:          0
cpu0->cpu0_ITLB PREFETCH     ACCESS:          0 HIT:          0 MISS:          0 MSHR_MERGE:          0
cpu0->cpu0_ITLB WRITE        ACCESS:          0 HIT:          0 MISS:          0 MSHR_MERGE:          0
cpu0->cpu0_ITLB TRANSLATION  ACCESS:          0 HIT:          0 MISS:          0 MSHR_MERGE:          0
cpu0->cpu0_ITLB PREFETCH REQUESTED:          0 ISSUED:          0 USEFUL:          0 USELESS:          0
cpu0->cpu0_ITLB AVERAGE MISS LATENCY: - cycles
cpu0->cpu0_DTLB TOTAL        ACCESS:   18153818 HIT:   16279888 MISS:    1873930 MSHR_MERGE:     598300
cpu0->cpu0_DTLB LOAD         ACCESS:   18153818 HIT:   16279888 MISS:    1873930 MSHR_MERGE:     598300
cpu0->cpu0_DTLB RFO          ACCESS:          0 HIT:          0 MISS:          0 MSHR_MERGE:          0
cpu0->cpu0_DTLB PREFETCH     ACCESS:          0 HIT:          0 MISS:          0 MSHR_MERGE:          0
cpu0->cpu0_DTLB WRITE        ACCESS:          0 HIT:          0 MISS:          0 MSHR_MERGE:          0
cpu0->cpu0_DTLB TRANSLATION  ACCESS:          0 HIT:          0 MISS:          0 MSHR_MERGE:          0
cpu0->cpu0_DTLB PREFETCH REQUESTED:          0 ISSUED:          0 USEFUL:          0 USELESS:          0
cpu0->cpu0_DTLB AVERAGE MISS LATENCY: 164.4 cycles
cpu0->LLC TOTAL        ACCESS:    4320240 HIT:    1063443 MISS:    3256797 MSHR_MERGE:          0
cpu0->LLC LOAD         ACCESS:     827894 HIT:     244768 MISS:     583126 MSHR_MERGE:          0
cpu0->LLC RFO          ACCESS:     724220 HIT:     225375 MISS:     498845 MSHR_MERGE:          0
cpu0->LLC PREFETCH     ACCESS:     998783 HIT:     100042 MISS:     898741 MSHR_MERGE:          0
cpu0->LLC WRITE        ACCESS:    1125889 HIT:     424037 MISS:     701852 MSHR_MERGE:          0
cpu0->LLC TRANSLATION  ACCESS:     643454 HIT:      69221 MISS:     574233 MSHR_MERGE:          0
cpu0->LLC PREFETCH REQUESTED:          0 ISSUED:          0 USEFUL:          0 USELESS:          0
cpu0->LLC AVERAGE MISS LATENCY: 197.9 cycles

DRAM Statistics

Channel 0 RQ ROW_BUFFER_HIT:      63382
  ROW_BUFFER_MISS:    2489454
  AVG DBUS CONGESTED CYCLE: 19.11
Channel 0 WQ ROW_BUFFER_HIT:     128604
  ROW_BUFFER_MISS:     626135
  FULL:         27
Channel 0 REFRESHES ISSUED:      19668
