[VMEM] WARNING: physical memory size is smaller than virtual memory size.
WARNING: option --warmup_instructions is deprecated. Use --warmup-instructions instead.
WARNING: option --simulation_instructions is deprecated. Use --simulation-instructions instead.

*** ChampSim Multicore Out-of-Order Simulator ***
Warmup Instructions: 20000000
Simulation Instructions: 50000000
Number of CPUs: 1
Page size: 8192

Off-chip DRAM Size: 16 GiB Channels: 1 Width: 64-bit Data Rate: 3205 MT/s
Heartbeat CPU 0 instructions: 10000002 cycles: 3304730 heartbeat IPC: 3.026 cumulative IPC: 3.026 (Simulation time: 00 hr 00 min 29 sec)
Warmup finished CPU 0 instructions: 20000001 cycles: 6596565 cumulative IPC: 3.032 (Simulation time: 00 hr 00 min 59 sec)
Warmup complete CPU 0 instructions: 20000001 cycles: 6596565 cumulative IPC: 3.032 (Simulation time: 00 hr 00 min 59 sec)
Heartbeat CPU 0 instructions: 20000002 cycles: 6596566 heartbeat IPC: 3.038 cumulative IPC: 1 (Simulation time: 00 hr 00 min 59 sec)
Heartbeat CPU 0 instructions: 30000002 cycles: 18347206 heartbeat IPC: 0.851 cumulative IPC: 0.851 (Simulation time: 00 hr 02 min 40 sec)
Heartbeat CPU 0 instructions: 40000004 cycles: 30041122 heartbeat IPC: 0.8551 cumulative IPC: 0.8531 (Simulation time: 00 hr 04 min 19 sec)
Heartbeat CPU 0 instructions: 50000004 cycles: 41822433 heartbeat IPC: 0.8488 cumulative IPC: 0.8516 (Simulation time: 00 hr 05 min 58 sec)
Heartbeat CPU 0 instructions: 60000006 cycles: 53599659 heartbeat IPC: 0.8491 cumulative IPC: 0.851 (Simulation time: 00 hr 07 min 38 sec)
Simulation finished CPU 0 instructions: 50000003 cycles: 58761443 cumulative IPC: 0.8509 (Simulation time: 00 hr 09 min 19 sec)
Simulation complete CPU 0 instructions: 50000003 cycles: 58761443 cumulative IPC: 0.8509 (Simulation time: 00 hr 09 min 19 sec)

ChampSim completed all CPUs

=== Simulation ===
CPU 0 runs traces/470.lbm-1274B.champsimtrace.xz

Region of Interest Statistics

CPU 0 cumulative IPC: 0.8509 instructions: 50000003 cycles: 58761443
CPU 0 Branch Prediction Accuracy: 99.79% MPKI: 0.02864 Average ROB Occupancy at Mispredict: 95.99
Branch type MPKI
BRANCH_DIRECT_JUMP: 0
BRANCH_INDIRECT: 0
BRANCH_CONDITIONAL: 0.02864
BRANCH_DIRECT_CALL: 0
BRANCH_INDIRECT_CALL: 0
BRANCH_RETURN: 0

cpu0->cpu0_STLB TOTAL        ACCESS:      11115 HIT:       5557 MISS:       5558 MSHR_MERGE:          0
cpu0->cpu0_STLB LOAD         ACCESS:      11115 HIT:       5557 MISS:       5558 MSHR_MERGE:          0
cpu0->cpu0_STLB RFO          ACCESS:          0 HIT:          0 MISS:          0 MSHR_MERGE:          0
cpu0->cpu0_STLB PREFETCH     ACCESS:          0 HIT:          0 MISS:          0 MSHR_MERGE:          0
cpu0->cpu0_STLB WRITE        ACCESS:          0 HIT:          0 MISS:          0 MSHR_MERGE:          0
cpu0->cpu0_STLB TRANSLATION  ACCESS:          0 HIT:          0 MISS:          0 MSHR_MERGE:          0
cpu0->cpu0_STLB PREFETCH REQUESTED:          0 ISSUED:          0 USEFUL:          0 USELESS:          0
cpu0->cpu0_STLB AVERAGE MISS LATENCY: 1171 cycles
cpu0->cpu0_L2C TOTAL        ACCESS:    4850811 HIT:    3335782 MISS:    1515029 MSHR_MERGE:      72486
cpu0->cpu0_L2C LOAD         ACCESS:     355732 HIT:     255552 MISS:     100180 MSHR_MERGE:      37741
cpu0->cpu0_L2C RFO          ACCESS:    1991889 HIT:     913811 MISS:    1078078 MSHR_MERGE:          0
cpu0->cpu0_L2C PREFETCH     ACCESS:     500177 HIT:     172135 MISS:     328042 MSHR_MERGE:      34745
cpu0->cpu0_L2C WRITE        ACCESS:    1991885 HIT:    1991840 MISS:         45 MSHR_MERGE:          0
cpu0->cpu0_L2C TRANSLATION  ACCESS:      11128 HIT:       2444 MISS:       8684 MSHR_MERGE:          0
cpu0->cpu0_L2C PREFETCH REQUESTED:     500177 ISSUED:     500177 USEFUL:     293293 USELESS:         12
cpu0->cpu0_L2C AVERAGE MISS LATENCY: 457.7 cycles
cpu0->cpu0_L1I TOTAL        ACCESS:    9144545 HIT:    9144545 MISS:          0 MSHR_MERGE:          0
cpu0->cpu0_L1I LOAD         ACCESS:    9144545 HIT:    9144545 MISS:          0 MSHR_MERGE:          0
cpu0->cpu0_L1I RFO          ACCESS:          0 HIT:          0 MISS:          0 MSHR_MERGE:          0
cpu0->cpu0_L1I PREFETCH     ACCESS:          0 HIT:          0 MISS:          0 MSHR_MERGE:          0
cpu0->cpu0_L1I WRITE        ACCESS:          0 HIT:          0 MISS:          0 MSHR_MERGE:          0
cpu0->cpu0_L1I TRANSLATION  ACCESS:          0 HIT:          0 MISS:          0 MSHR_MERGE:          0
cpu0->cpu0_L1I PREFETCH REQUESTED:          0 ISSUED:          0 USEFUL:          0 USELESS:          0
cpu0->cpu0_L1I AVERAGE MISS LATENCY: - cycles
cpu0->cpu0_L1D TOTAL        ACCESS:    7709115 HIT:    5306628 MISS:    2402487 MSHR_MERGE:      43738
cpu0->cpu0_L1D LOAD         ACCESS:    2674468 HIT:    2306852 MISS:     367616 MSHR_MERGE:      11884
cpu0->cpu0_L1D RFO          ACCESS:          0 HIT:          0 MISS:          0 MSHR_MERGE:          0
cpu0->cpu0_L1D PREFETCH     ACCESS:          0 HIT:          0 MISS:          0 MSHR_MERGE:          0
cpu0->cpu0_L1D WRITE        ACCESS:    5023519 HIT:    2999776 MISS:    2023743 MSHR_MERGE:      31854
cpu0->cpu0_L1D TRANSLATION  ACCESS:      11128 HIT:          0 MISS:      11128 MSHR_MERGE:          0
cpu0->cpu0_L1D PREFETCH REQUESTED:          0 ISSUED:          0 USEFUL:          0 USELESS:          0
cpu0->cpu0_L1D AVERAGE MISS LATENCY: 256.7 cycles
cpu0->cpu0_ITLB TOTAL        ACCESS:    7377757 HIT:    7377757 MISS:          0 MSHR_MERGE:          0
cpu0->cpu0_ITLB LOAD         ACCESS:    7377757 HIT:    7377757 MISS:          0 MSHR_MERGE:          0
cpu0->cpu0_ITLB RFO          ACCESS:          0 HIT:          0 MISS:          0 MSHR_MERGE:          0
cpu0->cpu0_ITLB PREFETCH     ACCESS:          0 HIT:          0 MISS:          0 MSHR_MERGE:          0
cpu0->cpu0_ITLB WRITE        ACCESS:          0 HIT:          0 MISS:          0 MSHR_MERGE:          0
cpu0->cpu0_ITLB TRANSLATION  ACCESS:          0 HIT:          0 MISS:          0 MSHR_MERGE:          0
cpu0->cpu0_ITLB PREFETCH REQUESTED:          0 ISSUED:          0 USEFUL:          0 USELESS:          0
cpu0->cpu0_ITLB AVERAGE MISS LATENCY: - cycles
cpu0->cpu0_DTLB TOTAL        ACCESS:    7298246 HIT:    7274839 MISS:      23407 MSHR_MERGE:      12292
cpu0->cpu0_DTLB LOAD         ACCESS:    7298246 HIT:    7274839 MISS:      23407 MSHR_MERGE:      12292
cpu0->cpu0_DTLB RFO          ACCESS:          0 HIT:          0 MISS:          0 MSHR_MERGE:          0
cpu0->cpu0_DTLB PREFETCH     ACCESS:          0 HIT:          0 MISS:          0 MSHR_MERGE:          0
cpu0->cpu0_DTLB WRITE        ACCESS:          0 HIT:          0 MISS:          0 MSHR_MERGE:          0
cpu0->cpu0_DTLB TRANSLATION  ACCESS:          0 HIT:          0 MISS:          0 MSHR_MERGE:          0
cpu0->cpu0_DTLB PREFETCH REQUESTED:          0 ISSUED:          0 USEFUL:          0 USELESS:          0
cpu0->cpu0_DTLB AVERAGE MISS LATENCY: 589.8 cycles
cpu0->LLC TOTAL        ACCESS:    2520761 HIT:      71866 MISS:    2448895 MSHR_MERGE:          0
cpu0->LLC LOAD         ACCESS:      62439 HIT:          0 MISS:      62439 MSHR_MERGE:          0
cpu0->LLC RFO          ACCESS:    1078076 HIT:      21595 MISS:    1056481 MSHR_MERGE:          0
cpu0->LLC PREFETCH     ACCESS:     293297 HIT:          0 MISS:     293297 MSHR_MERGE:          0
cpu0->LLC WRITE        ACCESS:    1078265 HIT:      50271 MISS:    1027994 MSHR_MERGE:          0
cpu0->LLC TRANSLATION  ACCESS:       8684 HIT:          0 MISS:       8684 MSHR_MERGE:          0
cpu0->LLC PREFETCH REQUESTED:          0 ISSUED:          0 USEFUL:          0 USELESS:          0
cpu0->LLC AVERAGE MISS LATENCY: 242.5 cycles

DRAM Statistics

Channel 0 RQ ROW_BUFFER_HIT:      36565
  ROW_BUFFER_MISS:    1384126
  AVG DBUS CONGESTED CYCLE: 11.83
Channel 0 WQ ROW_BUFFER_HIT:     153101
  ROW_BUFFER_MISS:     898856
  FULL:         45
Channel 0 REFRESHES ISSUED:       4897
