[VMEM] WARNING: physical memory size is smaller than virtual memory size.
WARNING: option --warmup_instructions is deprecated. Use --warmup-instructions instead.
WARNING: option --simulation_instructions is deprecated. Use --simulation-instructions instead.

*** ChampSim Multicore Out-of-Order Simulator ***
Warmup Instructions: 20000000
Simulation Instructions: 50000000
Number of CPUs: 1
Page size: 8192

Off-chip DRAM Size: 32 GiB Channels: 2 Width: 64-bit Data Rate: 3205 MT/s
Heartbeat CPU 0 instructions: 10000000 cycles: 4303952 heartbeat IPC: 2.323 cumulative IPC: 2.323 (Simulation time: 00 hr 00 min 54 sec)
Heartbeat CPU 0 instructions: 20000000 cycles: 8600208 heartbeat IPC: 2.328 cumulative IPC: 2.326 (Simulation time: 00 hr 01 min 49 sec)
Warmup finished CPU 0 instructions: 20000000 cycles: 8600208 cumulative IPC: 2.326 (Simulation time: 00 hr 01 min 49 sec)
Warmup complete CPU 0 instructions: 20000000 cycles: 8600208 cumulative IPC: 2.326 (Simulation time: 00 hr 01 min 49 sec)
Heartbeat CPU 0 instructions: 30000003 cycles: 16240901 heartbeat IPC: 1.309 cumulative IPC: 1.309 (Simulation time: 00 hr 03 min 08 sec)
Heartbeat CPU 0 instructions: 40000003 cycles: 23875152 heartbeat IPC: 1.31 cumulative IPC: 1.309 (Simulation time: 00 hr 04 min 22 sec)
Heartbeat CPU 0 instructions: 50000003 cycles: 31518141 heartbeat IPC: 1.308 cumulative IPC: 1.309 (Simulation time: 00 hr 05 min 40 sec)
Heartbeat CPU 0 instructions: 60000005 cycles: 39166070 heartbeat IPC: 1.308 cumulative IPC: 1.309 (Simulation time: 00 hr 06 min 58 sec)
Simulation finished CPU 0 instructions: 50000000 cycles: 38224932 cumulative IPC: 1.308 (Simulation time: 00 hr 08 min 14 sec)
Simulation complete CPU 0 instructions: 50000000 cycles: 38224932 cumulative IPC: 1.308 (Simulation time: 00 hr 08 min 14 sec)

ChampSim completed all CPUs

=== Simulation ===
CPU 0 runs traces/603.bwaves_s-1740B.champsimtrace.xz

Region of Interest Statistics

CPU 0 cumulative IPC: 1.308 instructions: 50000000 cycles: 38224932
CPU 0 Branch Prediction Accuracy: 99.97% MPKI: 0.00734 Average ROB Occupancy at Mispredict: 190
Branch type MPKI
BRANCH_DIRECT_JUMP: 0
BRANCH_INDIRECT: 0
BRANCH_CONDITIONAL: 0.00734
BRANCH_DIRECT_CALL: 0
BRANCH_INDIRECT_CALL: 0
BRANCH_RETURN: 0

cpu0->cpu0_STLB TOTAL        ACCESS:       7425 HIT:        365 MISS:       7060 MSHR_MERGE:          0
cpu0->cpu0_STLB LOAD         ACCESS:       7425 HIT:        365 MISS:       7060 MSHR_MERGE:          0
cpu0->cpu0_STLB RFO          ACCESS:          0 HIT:          0 MISS:          0 MSHR_MERGE:          0
cpu0->cpu0_STLB PREFETCH     ACCESS:          0 HIT:          0 MISS:          0 MSHR_MERGE:          0
cpu0->cpu0_STLB WRITE        ACCESS:          0 HIT:          0 MISS:          0 MSHR_MERGE:          0
cpu0->cpu0_STLB TRANSLATION  ACCESS:          0 HIT:          0 MISS:          0 MSHR_MERGE:          0
cpu0->cpu0_STLB PREFETCH REQUESTED:          0 ISSUED:          0 USEFUL:          0 USELESS:          0
cpu0->cpu0_STLB AVERAGE MISS LATENCY: 681.7 cycles
cpu0->cpu0_L2C TOTAL        ACCESS:    4021464 HIT:    2219932 MISS:    1801532 MSHR_MERGE:     585840
cpu0->cpu0_L2C LOAD         ACCESS:    1020175 HIT:     989591 MISS:      30584 MSHR_MERGE:      13901
cpu0->cpu0_L2C RFO          ACCESS:      32795 HIT:       8433 MISS:      24362 MSHR_MERGE:          0
cpu0->cpu0_L2C PREFETCH     ACCESS:    2918313 HIT:    1182241 MISS:    1736072 MSHR_MERGE:     571939
cpu0->cpu0_L2C WRITE        ACCESS:      36598 HIT:      36573 MISS:         25 MSHR_MERGE:          0
cpu0->cpu0_L2C TRANSLATION  ACCESS:      13583 HIT:       3094 MISS:      10489 MSHR_MERGE:          0
cpu0->cpu0_L2C PREFETCH REQUESTED:    3105023 ISSUED:    2918305 USEFUL:     915691 USELESS:        284
cpu0->cpu0_L2C AVERAGE MISS LATENCY: 131.5 cycles
cpu0->cpu0_L1I TOTAL        ACCESS:   12014760 HIT:   12014760 MISS:          0 MSHR_MERGE:          0
cpu0->cpu0_L1I LOAD         ACCESS:   12014760 HIT:   12014760 MISS:          0 MSHR_MERGE:          0
cpu0->cpu0_L1I RFO          ACCESS:          0 HIT:          0 MISS:          0 MSHR_MERGE:          0
cpu0->cpu0_L1I PREFETCH     ACCESS:          0 HIT:          0 MISS:          0 MSHR_MERGE:          0
cpu0->cpu0_L1I WRITE        ACCESS:          0 HIT:          0 MISS:          0 MSHR_MERGE:          0
cpu0->cpu0_L1I TRANSLATION  ACCESS:          0 HIT:          0 MISS:          0 MSHR_MERGE:          0
cpu0->cpu0_L1I PREFETCH REQUESTED:          0 ISSUED:          0 USEFUL:          0 USELESS:          0
cpu0->cpu0_L1I AVERAGE MISS LATENCY: - cycles
cpu0->cpu0_L1D TOTAL        ACCESS:   16966211 HIT:   15869224 MISS:    1096987 MSHR_MERGE:      30288
cpu0->cpu0_L1D LOAD         ACCESS:   14135444 HIT:   13108490 MISS:    1026954 MSHR_MERGE:       6715
cpu0->cpu0_L1D RFO          ACCESS:          0 HIT:          0 MISS:          0 MSHR_MERGE:          0
cpu0->cpu0_L1D PREFETCH     ACCESS:          0 HIT:          0 MISS:          0 MSHR_MERGE:          0
cpu0->cpu0_L1D WRITE        ACCESS:    2816699 HIT:    2760453 MISS:      56246 MSHR_MERGE:      23369
cpu0->cpu0_L1D TRANSLATION  ACCESS:      14068 HIT:        281 MISS:      13787 MSHR_MERGE:        204
cpu0->cpu0_L1D PREFETCH REQUESTED:          0 ISSUED:          0 USEFUL:          0 USELESS:          0
cpu0->cpu0_L1D AVERAGE MISS LATENCY: 17.88 cycles
cpu0->cpu0_ITLB TOTAL        ACCESS:   10880340 HIT:   10880340 MISS:          0 MSHR_MERGE:          0
cpu0->cpu0_ITLB LOAD         ACCESS:   10880340 HIT:   10880340 MISS:          0 MSHR_MERGE:          0
cpu0->cpu0_ITLB RFO          ACCESS:          0 HIT:          0 MISS:          0 MSHR_MERGE:          0
cpu0->cpu0_ITLB PREFETCH     ACCESS:          0 HIT:          0 MISS:          0 MSHR_MERGE:          0
cpu0->cpu0_ITLB WRITE        ACCESS:          0 HIT:          0 MISS:          0 MSHR_MERGE:          0
cpu0->cpu0_ITLB TRANSLATION  ACCESS:          0 HIT:          0 MISS:          0 MSHR_MERGE:          0
cpu0->cpu0_ITLB PREFETCH REQUESTED:          0 ISSUED:          0 USEFUL:          0 USELESS:          0
cpu0->cpu0_ITLB AVERAGE MISS LATENCY: - cycles
cpu0->cpu0_DTLB TOTAL        ACCESS:   16322795 HIT:   16309966 MISS:      12829 MSHR_MERGE:       5404
cpu0->cpu0_DTLB LOAD         ACCESS:   16322795 HIT:   16309966 MISS:      12829 MSHR_MERGE:       5404
cpu0->cpu0_DTLB RFO          ACCESS:          0 HIT:          0 MISS:          0 MSHR_MERGE:          0
cpu0->cpu0_DTLB PREFETCH     ACCESS:          0 HIT:          0 MISS:          0 MSHR_MERGE:          0
cpu0->cpu0_DTLB WRITE        ACCESS:          0 HIT:          0 MISS:          0 MSHR_MERGE:          0
cpu0->cpu0_DTLB TRANSLATION  ACCESS:          0 HIT:          0 MISS:          0 MSHR_MERGE:          0
cpu0->cpu0_DTLB PREFETCH REQUESTED:          0 ISSUED:          0 USEFUL:          0 USELESS:          0
cpu0->cpu0_DTLB AVERAGE MISS LATENCY: 653.1 cycles
cpu0->LLC TOTAL        ACCESS:    1240190 HIT:     194193 MISS:    1045997 MSHR_MERGE:      32314
cpu0->LLC LOAD         ACCESS:      16683 HIT:       6556 MISS:      10127 MSHR_MERGE:         62
cpu0->LLC RFO          ACCESS:      24362 HIT:          0 MISS:      24362 MSHR_MERGE:          0
cpu0->LLC PREFETCH     ACCESS:    1164133 HIT:     184835 MISS:     979298 MSHR_MERGE:      32252
cpu0->LLC WRITE        ACCESS:      24523 HIT:       2787 MISS:      21736 MSHR_MERGE:          0
cpu0->LLC TRANSLATION  ACCESS:      10489 HIT:         15 MISS:      10474 MSHR_MERGE:          0
cpu0->LLC PREFETCH REQUESTED:          0 ISSUED:          0 USEFUL:          0 USELESS:          0
cpu0->LLC AVERAGE MISS LATENCY: 104.1 cycles

DRAM Statistics

Channel 0 RQ ROW_BUFFER_HIT:      11305
  ROW_BUFFER_MISS:     484921
  AVG DBUS CONGESTED CYCLE: 5.827
Channel 0 WQ ROW_BUFFER_HIT:       1032
  ROW_BUFFER_MISS:      11590
  FULL:          0
Channel 0 REFRESHES ISSUED:       3186

Channel 1 RQ ROW_BUFFER_HIT:      10768
  ROW_BUFFER_MISS:     484953
  AVG DBUS CONGESTED CYCLE: 5.848
Channel 1 WQ ROW_BUFFER_HIT:        997
  ROW_BUFFER_MISS:      11622
  FULL:          0
Channel 1 REFRESHES ISSUED:       3186
