[VMEM] WARNING: physical memory size is smaller than virtual memory size.
WARNING: option --warmup_instructions is deprecated. Use --warmup-instructions instead.
WARNING: option --simulation_instructions is deprecated. Use --simulation-instructions instead.

*** ChampSim Multicore Out-of-Order Simulator ***
Warmup Instructions: 20000000
Simulation Instructions: 50000000
Number of CPUs: 1
Page size: 8192

Off-chip DRAM Size: 32 GiB Channels: 2 Width: 64-bit Data Rate: 3205 MT/s
Heartbeat CPU 0 instructions: 10000001 cycles: 2973627 heartbeat IPC: 3.363 cumulative IPC: 3.363 (Simulation time: 00 hr 00 min 37 sec)
Warmup finished CPU 0 instructions: 20000000 cycles: 5935800 cumulative IPC: 3.369 (Simulation time: 00 hr 01 min 16 sec)
Warmup complete CPU 0 instructions: 20000000 cycles: 5935800 cumulative IPC: 3.369 (Simulation time: 00 hr 01 min 16 sec)
Heartbeat CPU 0 instructions: 20000004 cycles: 5935801 heartbeat IPC: 3.376 cumulative IPC: 4 (Simulation time: 00 hr 01 min 16 sec)
Heartbeat CPU 0 instructions: 30000006 cycles: 12697597 heartbeat IPC: 1.479 cumulative IPC: 1.479 (Simulation time: 00 hr 02 min 52 sec)
Heartbeat CPU 0 instructions: 40000009 cycles: 19366718 heartbeat IPC: 1.499 cumulative IPC: 1.489 (Simulation time: 00 hr 04 min 28 sec)
Heartbeat CPU 0 instructions: 50000009 cycles: 25950300 heartbeat IPC: 1.519 cumulative IPC: 1.499 (Simulation time: 00 hr 06 min 02 sec)
Heartbeat CPU 0 instructions: 60000010 cycles: 32542702 heartbeat IPC: 1.517 cumulative IPC: 1.503 (Simulation time: 00 hr 07 min 37 sec)
Simulation finished CPU 0 instructions: 50000003 cycles: 33126892 cumulative IPC: 1.509 (Simulation time: 00 hr 09 min 08 sec)
Simulation complete CPU 0 instructions: 50000003 cycles: 33126892 cumulative IPC: 1.509 (Simulation time: 00 hr 09 min 08 sec)

ChampSim completed all CPUs

=== Simulation ===
CPU 0 runs traces/470.lbm-1274B.champsimtrace.xz

Region of Interest Statistics

CPU 0 cumulative IPC: 1.509 instructions: 50000003 cycles: 33126892
CPU 0 Branch Prediction Accuracy: 99.79% MPKI: 0.02864 Average ROB Occupancy at Mispredict: 189.9
Branch type MPKI
BRANCH_DIRECT_JUMP: 0
BRANCH_INDIRECT: 0
BRANCH_CONDITIONAL: 0.02864
BRANCH_DIRECT_CALL: 0
BRANCH_INDIRECT_CALL: 0
BRANCH_RETURN: 0

cpu0->cpu0_STLB TOTAL        ACCESS:      11115 HIT:       5557 MISS:       5558 MSHR_MERGE:          0
cpu0->cpu0_STLB LOAD         ACCESS:      11115 HIT:       5557 MISS:       5558 MSHR_MERGE:          0
cpu0->cpu0_STLB RFO          ACCESS:          0 HIT:          0 MISS:          0 MSHR_MERGE:          0
cpu0->cpu0_STLB PREFETCH     ACCESS:          0 HIT:          0 MISS:          0 MSHR_MERGE:          0
cpu0->cpu0_STLB WRITE        ACCESS:          0 HIT:          0 MISS:          0 MSHR_MERGE:          0
cpu0->cpu0_STLB TRANSLATION  ACCESS:          0 HIT:          0 MISS:          0 MSHR_MERGE:          0
cpu0->cpu0_STLB PREFETCH REQUESTED:          0 ISSUED:          0 USEFUL:          0 USELESS:          0
cpu0->cpu0_STLB AVERAGE MISS LATENCY: 963.2 cycles
cpu0->cpu0_L2C TOTAL        ACCESS:    5465331 HIT:    3437003 MISS:    2028328 MSHR_MERGE:     134813
cpu0->cpu0_L2C LOAD         ACCESS:     355730 HIT:     265030 MISS:      90700 MSHR_MERGE:      11665
cpu0->cpu0_L2C RFO          ACCESS:    2002602 HIT:     926187 MISS:    1076415 MSHR_MERGE:          0
cpu0->cpu0_L2C PREFETCH     ACCESS:    1093143 HIT:     240629 MISS:     852514 MSHR_MERGE:     123148
cpu0->cpu0_L2C WRITE        ACCESS:    2002728 HIT:    2002713 MISS:         15 MSHR_MERGE:          0
cpu0->cpu0_L2C TRANSLATION  ACCESS:      11128 HIT:       2444 MISS:       8684 MSHR_MERGE:          0
cpu0->cpu0_L2C PREFETCH REQUESTED:    1871757 ISSUED:    1093143 USEFUL:     276695 USELESS:         12
cpu0->cpu0_L2C AVERAGE MISS LATENCY: 298 cycles
cpu0->cpu0_L1I TOTAL        ACCESS:    8538464 HIT:    8538464 MISS:          0 MSHR_MERGE:          0
cpu0->cpu0_L1I LOAD         ACCESS:    8538464 HIT:    8538464 MISS:          0 MSHR_MERGE:          0
cpu0->cpu0_L1I RFO          ACCESS:          0 HIT:          0 MISS:          0 MSHR_MERGE:          0
cpu0->cpu0_L1I PREFETCH     ACCESS:          0 HIT:          0 MISS:          0 MSHR_MERGE:          0
cpu0->cpu0_L1I WRITE        ACCESS:          0 HIT:          0 MISS:          0 MSHR_MERGE:          0
cpu0->cpu0_L1I TRANSLATION  ACCESS:          0 HIT:          0 MISS:          0 MSHR_MERGE:          0
cpu0->cpu0_L1I PREFETCH REQUESTED:          0 ISSUED:          0 USEFUL:          0 USELESS:          0
cpu0->cpu0_L1I AVERAGE MISS LATENCY: - cycles
cpu0->cpu0_L1D TOTAL        ACCESS:    7275178 HIT:    4808514 MISS:    2466664 MSHR_MERGE:      97069
cpu0->cpu0_L1D LOAD         ACCESS:    2240531 HIT:    1867595 MISS:     372936 MSHR_MERGE:      17206
cpu0->cpu0_L1D RFO          ACCESS:          0 HIT:          0 MISS:          0 MSHR_MERGE:          0
cpu0->cpu0_L1D PREFETCH     ACCESS:          0 HIT:          0 MISS:          0 MSHR_MERGE:          0
cpu0->cpu0_L1D WRITE        ACCESS:    5023519 HIT:    2940919 MISS:    2082600 MSHR_MERGE:      79863
cpu0->cpu0_L1D TRANSLATION  ACCESS:      11128 HIT:          0 MISS:      11128 MSHR_MERGE:          0
cpu0->cpu0_L1D PREFETCH REQUESTED:          0 ISSUED:          0 USEFUL:          0 USELESS:          0
cpu0->cpu0_L1D AVERAGE MISS LATENCY: 166.3 cycles
cpu0->cpu0_ITLB TOTAL        ACCESS:    7026587 HIT:    7026587 MISS:          0 MSHR_MERGE:          0
cpu0->cpu0_ITLB LOAD         ACCESS:    7026587 HIT:    7026587 MISS:          0 MSHR_MERGE:          0
cpu0->cpu0_ITLB RFO          ACCESS:          0 HIT:          0 MISS:          0 MSHR_MERGE:          0
cpu0->cpu0_ITLB PREFETCH     ACCESS:          0 HIT:          0 MISS:          0 MSHR_MERGE:          0
cpu0->cpu0_ITLB WRITE        ACCESS:          0 HIT:          0 MISS:          0 MSHR_MERGE:          0
cpu0->cpu0_ITLB TRANSLATION  ACCESS:          0 HIT:          0 MISS:          0 MSHR_MERGE:          0
cpu0->cpu0_ITLB PREFETCH REQUESTED:          0 ISSUED:          0 USEFUL:          0 USELESS:          0
cpu0->cpu0_ITLB AVERAGE MISS LATENCY: - cycles
cpu0->cpu0_DTLB TOTAL        ACCESS:    6794936 HIT:    6766418 MISS:      28518 MSHR_MERGE:      17403
cpu0->cpu0_DTLB LOAD         ACCESS:    6794936 HIT:    6766418 MISS:      28518 MSHR_MERGE:      17403
cpu0->cpu0_DTLB RFO          ACCESS:          0 HIT:          0 MISS:          0 MSHR_MERGE:          0
cpu0->cpu0_DTLB PREFETCH     ACCESS:          0 HIT:          0 MISS:          0 MSHR_MERGE:          0
cpu0->cpu0_DTLB WRITE        ACCESS:          0 HIT:          0 MISS:          0 MSHR_MERGE:          0
cpu0->cpu0_DTLB TRANSLATION  ACCESS:          0 HIT:          0 MISS:          0 MSHR_MERGE:          0
cpu0->cpu0_DTLB PREFETCH REQUESTED:          0 ISSUED:          0 USEFUL:          0 USELESS:          0
cpu0->cpu0_DTLB AVERAGE MISS LATENCY: 486.1 cycles
cpu0->LLC TOTAL        ACCESS:    2969747 HIT:     327772 MISS:    2641975 MSHR_MERGE:     187713
cpu0->LLC LOAD         ACCESS:      79035 HIT:      59340 MISS:      19695 MSHR_MERGE:       3495
cpu0->LLC RFO          ACCESS:    1076413 HIT:      18493 MISS:    1057920 MSHR_MERGE:          0
cpu0->LLC PREFETCH     ACCESS:     729366 HIT:     205529 MISS:     523837 MSHR_MERGE:     184218
cpu0->LLC WRITE        ACCESS:    1076249 HIT:      44410 MISS:    1031839 MSHR_MERGE:          0
cpu0->LLC TRANSLATION  ACCESS:       8684 HIT:          0 MISS:       8684 MSHR_MERGE:          0
cpu0->LLC PREFETCH REQUESTED:          0 ISSUED:          0 USEFUL:          0 USELESS:          0
cpu0->LLC AVERAGE MISS LATENCY: 159.7 cycles

DRAM Statistics

Channel 0 RQ ROW_BUFFER_HIT:      11709
  ROW_BUFFER_MISS:     699369
  AVG DBUS CONGESTED CYCLE: 11.74
Channel 0 WQ ROW_BUFFER_HIT:      72364
  ROW_BUFFER_MISS:     465802
  FULL:       3236
Channel 0 REFRESHES ISSUED:       2761

Channel 1 RQ ROW_BUFFER_HIT:      11645
  ROW_BUFFER_MISS:     699504
  AVG DBUS CONGESTED CYCLE: 11.75
Channel 1 WQ ROW_BUFFER_HIT:      72364
  ROW_BUFFER_MISS:     465846
  FULL:       3184
Channel 1 REFRESHES ISSUED:       2761
