[VMEM] WARNING: physical memory size is smaller than virtual memory size.
WARNING: option --warmup_instructions is deprecated. Use --warmup-instructions instead.
WARNING: option --simulation_instructions is deprecated. Use --simulation-instructions instead.

*** ChampSim Multicore Out-of-Order Simulator ***
Warmup Instructions: 20000000
Simulation Instructions: 50000000
Number of CPUs: 1
Page size: 8192

Off-chip DRAM Size: 16 GiB Channels: 1 Width: 64-bit Data Rate: 3205 MT/s
Heartbeat CPU 0 instructions: 10000003 cycles: 6089040 heartbeat IPC: 1.642 cumulative IPC: 1.642 (Simulation time: 00 hr 00 min 51 sec)
Heartbeat CPU 0 instructions: 20000003 cycles: 12021251 heartbeat IPC: 1.686 cumulative IPC: 1.664 (Simulation time: 00 hr 01 min 46 sec)
Warmup finished CPU 0 instructions: 20000003 cycles: 12021251 cumulative IPC: 1.664 (Simulation time: 00 hr 01 min 46 sec)
Warmup complete CPU 0 instructions: 20000003 cycles: 12021251 cumulative IPC: 1.664 (Simulation time: 00 hr 01 min 46 sec)
Heartbeat CPU 0 instructions: 30000003 cycles: 26118234 heartbeat IPC: 0.7094 cumulative IPC: 0.7094 (Simulation time: 00 hr 03 min 15 sec)
Heartbeat CPU 0 instructions: 40000005 cycles: 34567691 heartbeat IPC: 1.184 cumulative IPC: 0.8871 (Simulation time: 00 hr 04 min 15 sec)
Heartbeat CPU 0 instructions: 50000007 cycles: 46083672 heartbeat IPC: 0.8684 cumulative IPC: 0.8807 (Simulation time: 00 hr 05 min 31 sec)
Heartbeat CPU 0 instructions: 60000010 cycles: 63311799 heartbeat IPC: 0.5804 cumulative IPC: 0.7799 (Simulation time: 00 hr 07 min 15 sec)
Simulation finished CPU 0 instructions: 50000003 cycles: 62404162 cumulative IPC: 0.8012 (Simulation time: 00 hr 08 min 28 sec)
Simulation complete CPU 0 instructions: 50000003 cycles: 62404162 cumulative IPC: 0.8012 (Simulation time: 00 hr 08 min 28 sec)

ChampSim completed all CPUs

=== Simulation ===
CPU 0 runs traces/429.mcf-217B.champsimtrace.xz

Region of Interest Statistics

CPU 0 cumulative IPC: 0.8012 instructions: 50000003 cycles: 62404162
CPU 0 Branch Prediction Accuracy: 98.95% MPKI: 1.194 Average ROB Occupancy at Mispredict: 121.1
Branch type MPKI
BRANCH_DIRECT_JUMP: 0
BRANCH_INDIRECT: 0
BRANCH_CONDITIONAL: 1.194
BRANCH_DIRECT_CALL: 0
BRANCH_INDIRECT_CALL: 0
BRANCH_RETURN: 0

cpu0->cpu0_STLB TOTAL        ACCESS:      58039 HIT:      56189 MISS:       1850 MSHR_MERGE:          0
cpu0->cpu0_STLB LOAD         ACCESS:      58039 HIT:      56189 MISS:       1850 MSHR_MERGE:          0
cpu0->cpu0_STLB RFO          ACCESS:          0 HIT:          0 MISS:          0 MSHR_MERGE:          0
cpu0->cpu0_STLB PREFETCH     ACCESS:          0 HIT:          0 MISS:          0 MSHR_MERGE:          0
cpu0->cpu0_STLB WRITE        ACCESS:          0 HIT:          0 MISS:          0 MSHR_MERGE:          0
cpu0->cpu0_STLB TRANSLATION  ACCESS:          0 HIT:          0 MISS:          0 MSHR_MERGE:          0
cpu0->cpu0_STLB PREFETCH REQUESTED:          0 ISSUED:          0 USEFUL:          0 USELESS:          0
cpu0->cpu0_STLB AVERAGE MISS LATENCY: 588 cycles
cpu0->cpu0_L2C TOTAL        ACCESS:    8965142 HIT:    4331775 MISS:    4633367 MSHR_MERGE:    1921262
cpu0->cpu0_L2C LOAD         ACCESS:    2598464 HIT:    1899181 MISS:     699283 MSHR_MERGE:     523242
cpu0->cpu0_L2C RFO          ACCESS:       1568 HIT:       1433 MISS:        135 MSHR_MERGE:          0
cpu0->cpu0_L2C PREFETCH     ACCESS:    6265500 HIT:    2335190 MISS:    3930310 MSHR_MERGE:    1398020
cpu0->cpu0_L2C WRITE        ACCESS:      96216 HIT:      95481 MISS:        735 MSHR_MERGE:          0
cpu0->cpu0_L2C TRANSLATION  ACCESS:       3394 HIT:        490 MISS:       2904 MSHR_MERGE:          0
cpu0->cpu0_L2C PREFETCH REQUESTED:    6265541 ISSUED:    6265496 USEFUL:    2403128 USELESS:     129178
cpu0->cpu0_L2C AVERAGE MISS LATENCY: 61.95 cycles
cpu0->cpu0_L1I TOTAL        ACCESS:    9346315 HIT:    9346315 MISS:          0 MSHR_MERGE:          0
cpu0->cpu0_L1I LOAD         ACCESS:    9346315 HIT:    9346315 MISS:          0 MSHR_MERGE:          0
cpu0->cpu0_L1I RFO          ACCESS:          0 HIT:          0 MISS:          0 MSHR_MERGE:          0
cpu0->cpu0_L1I PREFETCH     ACCESS:          0 HIT:          0 MISS:          0 MSHR_MERGE:          0
cpu0->cpu0_L1I WRITE        ACCESS:          0 HIT:          0 MISS:          0 MSHR_MERGE:          0
cpu0->cpu0_L1I TRANSLATION  ACCESS:          0 HIT:          0 MISS:          0 MSHR_MERGE:          0
cpu0->cpu0_L1I PREFETCH REQUESTED:          0 ISSUED:          0 USEFUL:          0 USELESS:          0
cpu0->cpu0_L1I AVERAGE MISS LATENCY: - cycles
cpu0->cpu0_L1D TOTAL        ACCESS:   16470072 HIT:   13770091 MISS:    2699981 MSHR_MERGE:      96522
cpu0->cpu0_L1D LOAD         ACCESS:    8593811 HIT:    5900833 MISS:    2692978 MSHR_MERGE:      94481
cpu0->cpu0_L1D RFO          ACCESS:          0 HIT:          0 MISS:          0 MSHR_MERGE:          0
cpu0->cpu0_L1D PREFETCH     ACCESS:          0 HIT:          0 MISS:          0 MSHR_MERGE:          0
cpu0->cpu0_L1D WRITE        ACCESS:    7872554 HIT:    7868945 MISS:       3609 MSHR_MERGE:       2041
cpu0->cpu0_L1D TRANSLATION  ACCESS:       3707 HIT:        313 MISS:       3394 MSHR_MERGE:          0
cpu0->cpu0_L1D PREFETCH REQUESTED:          0 ISSUED:          0 USEFUL:          0 USELESS:          0
cpu0->cpu0_L1D AVERAGE MISS LATENCY: 25 cycles
cpu0->cpu0_ITLB TOTAL        ACCESS:    8173866 HIT:    8173866 MISS:          0 MSHR_MERGE:          0
cpu0->cpu0_ITLB LOAD         ACCESS:    8173866 HIT:    8173866 MISS:          0 MSHR_MERGE:          0
cpu0->cpu0_ITLB RFO          ACCESS:          0 HIT:          0 MISS:          0 MSHR_MERGE:          0
cpu0->cpu0_ITLB PREFETCH     ACCESS:          0 HIT:          0 MISS:          0 MSHR_MERGE:          0
cpu0->cpu0_ITLB WRITE        ACCESS:          0 HIT:          0 MISS:          0 MSHR_MERGE:          0
cpu0->cpu0_ITLB TRANSLATION  ACCESS:          0 HIT:          0 MISS:          0 MSHR_MERGE:          0
cpu0->cpu0_ITLB PREFETCH REQUESTED:          0 ISSUED:          0 USEFUL:          0 USELESS:          0
cpu0->cpu0_ITLB AVERAGE MISS LATENCY: - cycles
cpu0->cpu0_DTLB TOTAL        ACCESS:   14954552 HIT:   14880625 MISS:      73927 MSHR_MERGE:      15888
cpu0->cpu0_DTLB LOAD         ACCESS:   14954552 HIT:   14880625 MISS:      73927 MSHR_MERGE:      15888
cpu0->cpu0_DTLB RFO          ACCESS:          0 HIT:          0 MISS:          0 MSHR_MERGE:          0
cpu0->cpu0_DTLB PREFETCH     ACCESS:          0 HIT:          0 MISS:          0 MSHR_MERGE:          0
cpu0->cpu0_DTLB WRITE        ACCESS:          0 HIT:          0 MISS:          0 MSHR_MERGE:          0
cpu0->cpu0_DTLB TRANSLATION  ACCESS:          0 HIT:          0 MISS:          0 MSHR_MERGE:          0
cpu0->cpu0_DTLB PREFETCH REQUESTED:          0 ISSUED:          0 USEFUL:          0 USELESS:          0
cpu0->cpu0_DTLB AVERAGE MISS LATENCY: 22.78 cycles
cpu0->LLC TOTAL        ACCESS:    2792185 HIT:     677238 MISS:    2114947 MSHR_MERGE:          0
cpu0->LLC LOAD         ACCESS:     176041 HIT:      23713 MISS:     152328 MSHR_MERGE:          0
cpu0->LLC RFO          ACCESS:        135 HIT:        105 MISS:         30 MSHR_MERGE:          0
cpu0->LLC PREFETCH     ACCESS:    2532290 HIT:     632671 MISS:    1899619 MSHR_MERGE:          0
cpu0->LLC WRITE        ACCESS:      80815 HIT:      20741 MISS:      60074 MSHR_MERGE:          0
cpu0->LLC TRANSLATION  ACCESS:       2904 HIT:          8 MISS:       2896 MSHR_MERGE:          0
cpu0->LLC PREFETCH REQUESTED:          0 ISSUED:          0 USEFUL:          0 USELESS:          0
cpu0->LLC AVERAGE MISS LATENCY: 67.22 cycles

DRAM Statistics

Channel 0 RQ ROW_BUFFER_HIT:     211316
  ROW_BUFFER_MISS:    1843410
  AVG DBUS CONGESTED CYCLE: 4.503
Channel 0 WQ ROW_BUFFER_HIT:       9903
  ROW_BUFFER_MISS:      65614
  FULL:          0
Channel 0 REFRESHES ISSUED:       5201
