[VMEM] WARNING: physical memory size is smaller than virtual memory size.
WARNING: option --warmup_instructions is deprecated. Use --warmup-instructions instead.
WARNING: option --simulation_instructions is deprecated. Use --simulation-instructions instead.

*** ChampSim Multicore Out-of-Order Simulator ***
Warmup Instructions: 20000000
Simulation Instructions: 50000000
Number of CPUs: 1
Page size: 8192

Off-chip DRAM Size: 16 GiB Channels: 1 Width: 64-bit Data Rate: 3205 MT/s
Heartbeat CPU 0 instructions: 10000000 cycles: 4304086 heartbeat IPC: 2.323 cumulative IPC: 2.323 (Simulation time: 00 hr 00 min 41 sec)
Heartbeat CPU 0 instructions: 20000000 cycles: 8600012 heartbeat IPC: 2.328 cumulative IPC: 2.326 (Simulation time: 00 hr 01 min 22 sec)
Warmup finished CPU 0 instructions: 20000000 cycles: 8600012 cumulative IPC: 2.326 (Simulation time: 00 hr 01 min 22 sec)
Warmup complete CPU 0 instructions: 20000000 cycles: 8600012 cumulative IPC: 2.326 (Simulation time: 00 hr 01 min 22 sec)
Heartbeat CPU 0 instructions: 30000002 cycles: 16546547 heartbeat IPC: 1.258 cumulative IPC: 1.258 (Simulation time: 00 hr 02 min 21 sec)
Heartbeat CPU 0 instructions: 40000003 cycles: 24487989 heartbeat IPC: 1.259 cumulative IPC: 1.259 (Simulation time: 00 hr 03 min 20 sec)
Heartbeat CPU 0 instructions: 50000003 cycles: 32431622 heartbeat IPC: 1.259 cumulative IPC: 1.259 (Simulation time: 00 hr 04 min 21 sec)
Heartbeat CPU 0 instructions: 60000005 cycles: 40383238 heartbeat IPC: 1.258 cumulative IPC: 1.259 (Simulation time: 00 hr 05 min 22 sec)
Simulation finished CPU 0 instructions: 50000000 cycles: 39732795 cumulative IPC: 1.258 (Simulation time: 00 hr 06 min 22 sec)
Simulation complete CPU 0 instructions: 50000000 cycles: 39732795 cumulative IPC: 1.258 (Simulation time: 00 hr 06 min 22 sec)

ChampSim completed all CPUs

=== Simulation ===
CPU 0 runs traces/603.bwaves_s-1740B.champsimtrace.xz

Region of Interest Statistics

CPU 0 cumulative IPC: 1.258 instructions: 50000000 cycles: 39732795
CPU 0 Branch Prediction Accuracy: 99.97% MPKI: 0.00734 Average ROB Occupancy at Mispredict: 190
Branch type MPKI
BRANCH_DIRECT_JUMP: 0
BRANCH_INDIRECT: 0
BRANCH_CONDITIONAL: 0.00734
BRANCH_DIRECT_CALL: 0
BRANCH_INDIRECT_CALL: 0
BRANCH_RETURN: 0

cpu0->cpu0_STLB TOTAL        ACCESS:       7425 HIT:        365 MISS:       7060 MSHR_MERGE:          0
cpu0->cpu0_STLB LOAD         ACCESS:       7425 HIT:        365 MISS:       7060 MSHR_MERGE:          0
cpu0->cpu0_STLB RFO          ACCESS:          0 HIT:          0 MISS:          0 MSHR_MERGE:          0
cpu0->cpu0_STLB PREFETCH     ACCESS:          0 HIT:          0 MISS:          0 MSHR_MERGE:          0
cpu0->cpu0_STLB WRITE        ACCESS:          0 HIT:          0 MISS:          0 MSHR_MERGE:          0
cpu0->cpu0_STLB TRANSLATION  ACCESS:          0 HIT:          0 MISS:          0 MSHR_MERGE:          0
cpu0->cpu0_STLB PREFETCH REQUESTED:          0 ISSUED:          0 USEFUL:          0 USELESS:          0
cpu0->cpu0_STLB AVERAGE MISS LATENCY: 589.3 cycles
cpu0->cpu0_L2C TOTAL        ACCESS:    3246463 HIT:    1962276 MISS:    1284187 MSHR_MERGE:     315648
cpu0->cpu0_L2C LOAD         ACCESS:    1020296 HIT:     901242 MISS:     119054 MSHR_MERGE:     101290
cpu0->cpu0_L2C RFO          ACCESS:      33129 HIT:       8767 MISS:      24362 MSHR_MERGE:          0
cpu0->cpu0_L2C PREFETCH     ACCESS:    2142573 HIT:    1012307 MISS:    1130266 MSHR_MERGE:     214358
cpu0->cpu0_L2C WRITE        ACCESS:      36898 HIT:      36861 MISS:         37 MSHR_MERGE:          0
cpu0->cpu0_L2C TRANSLATION  ACCESS:      13567 HIT:       3099 MISS:      10468 MSHR_MERGE:          0
cpu0->cpu0_L2C PREFETCH REQUESTED:    2202608 ISSUED:    2142565 USEFUL:     915561 USELESS:        344
cpu0->cpu0_L2C AVERAGE MISS LATENCY: 85.69 cycles
cpu0->cpu0_L1I TOTAL        ACCESS:   12010662 HIT:   12010662 MISS:          0 MSHR_MERGE:          0
cpu0->cpu0_L1I LOAD         ACCESS:   12010662 HIT:   12010662 MISS:          0 MSHR_MERGE:          0
cpu0->cpu0_L1I RFO          ACCESS:          0 HIT:          0 MISS:          0 MSHR_MERGE:          0
cpu0->cpu0_L1I PREFETCH     ACCESS:          0 HIT:          0 MISS:          0 MSHR_MERGE:          0
cpu0->cpu0_L1I WRITE        ACCESS:          0 HIT:          0 MISS:          0 MSHR_MERGE:          0
cpu0->cpu0_L1I TRANSLATION  ACCESS:          0 HIT:          0 MISS:          0 MSHR_MERGE:          0
cpu0->cpu0_L1I PREFETCH REQUESTED:          0 ISSUED:          0 USEFUL:          0 USELESS:          0
cpu0->cpu0_L1I AVERAGE MISS LATENCY: - cycles
cpu0->cpu0_L1D TOTAL        ACCESS:   16988947 HIT:   15877341 MISS:    1111606 MSHR_MERGE:      44460
cpu0->cpu0_L1D LOAD         ACCESS:   14158184 HIT:   13096561 MISS:    1061623 MSHR_MERGE:      41267
cpu0->cpu0_L1D RFO          ACCESS:          0 HIT:          0 MISS:          0 MSHR_MERGE:          0
cpu0->cpu0_L1D PREFETCH     ACCESS:          0 HIT:          0 MISS:          0 MSHR_MERGE:          0
cpu0->cpu0_L1D WRITE        ACCESS:    2816699 HIT:    2780470 MISS:      36229 MSHR_MERGE:       3006
cpu0->cpu0_L1D TRANSLATION  ACCESS:      14064 HIT:        310 MISS:      13754 MSHR_MERGE:        187
cpu0->cpu0_L1D PREFETCH REQUESTED:          0 ISSUED:          0 USEFUL:          0 USELESS:          0
cpu0->cpu0_L1D AVERAGE MISS LATENCY: 23.49 cycles
cpu0->cpu0_ITLB TOTAL        ACCESS:   10873058 HIT:   10873058 MISS:          0 MSHR_MERGE:          0
cpu0->cpu0_ITLB LOAD         ACCESS:   10873058 HIT:   10873058 MISS:          0 MSHR_MERGE:          0
cpu0->cpu0_ITLB RFO          ACCESS:          0 HIT:          0 MISS:          0 MSHR_MERGE:          0
cpu0->cpu0_ITLB PREFETCH     ACCESS:          0 HIT:          0 MISS:          0 MSHR_MERGE:          0
cpu0->cpu0_ITLB WRITE        ACCESS:          0 HIT:          0 MISS:          0 MSHR_MERGE:          0
cpu0->cpu0_ITLB TRANSLATION  ACCESS:          0 HIT:          0 MISS:          0 MSHR_MERGE:          0
cpu0->cpu0_ITLB PREFETCH REQUESTED:          0 ISSUED:          0 USEFUL:          0 USELESS:          0
cpu0->cpu0_ITLB AVERAGE MISS LATENCY: - cycles
cpu0->cpu0_DTLB TOTAL        ACCESS:   16336399 HIT:   16323928 MISS:      12471 MSHR_MERGE:       5046
cpu0->cpu0_DTLB LOAD         ACCESS:   16336399 HIT:   16323928 MISS:      12471 MSHR_MERGE:       5046
cpu0->cpu0_DTLB RFO          ACCESS:          0 HIT:          0 MISS:          0 MSHR_MERGE:          0
cpu0->cpu0_DTLB PREFETCH     ACCESS:          0 HIT:          0 MISS:          0 MSHR_MERGE:          0
cpu0->cpu0_DTLB WRITE        ACCESS:          0 HIT:          0 MISS:          0 MSHR_MERGE:          0
cpu0->cpu0_DTLB TRANSLATION  ACCESS:          0 HIT:          0 MISS:          0 MSHR_MERGE:          0
cpu0->cpu0_DTLB PREFETCH REQUESTED:          0 ISSUED:          0 USEFUL:          0 USELESS:          0
cpu0->cpu0_DTLB AVERAGE MISS LATENCY: 565.3 cycles
cpu0->LLC TOTAL        ACCESS:     993034 HIT:       4804 MISS:     988230 MSHR_MERGE:          0
cpu0->LLC LOAD         ACCESS:      17764 HIT:        233 MISS:      17531 MSHR_MERGE:          0
cpu0->LLC RFO          ACCESS:      24362 HIT:          0 MISS:      24362 MSHR_MERGE:          0
cpu0->LLC PREFETCH     ACCESS:     915908 HIT:       1806 MISS:     914102 MSHR_MERGE:          0
cpu0->LLC WRITE        ACCESS:      24532 HIT:       2758 MISS:      21774 MSHR_MERGE:          0
cpu0->LLC TRANSLATION  ACCESS:      10468 HIT:          7 MISS:      10461 MSHR_MERGE:          0
cpu0->LLC PREFETCH REQUESTED:          0 ISSUED:          0 USEFUL:          0 USELESS:          0
cpu0->LLC AVERAGE MISS LATENCY: 73.28 cycles

DRAM Statistics

Channel 0 RQ ROW_BUFFER_HIT:        708
  ROW_BUFFER_MISS:     965748
  AVG DBUS CONGESTED CYCLE: 3.201
Channel 0 WQ ROW_BUFFER_HIT:       1135
  ROW_BUFFER_MISS:      23195
  FULL:          0
Channel 0 REFRESHES ISSUED:       3311
