[VMEM] WARNING: physical memory size is smaller than virtual memory size.
WARNING: option --warmup_instructions is deprecated. Use --warmup-instructions instead.
WARNING: option --simulation_instructions is deprecated. Use --simulation-instructions instead.

*** ChampSim Multicore Out-of-Order Simulator ***
Warmup Instructions: 20000000
Simulation Instructions: 40000000
Number of CPUs: 1
Page size: 8192

Off-chip DRAM Size: 16 GiB Channels: 1 Width: 64-bit Data Rate: 3205 MT/s
Heartbeat CPU 0 instructions: 10000000 cycles: 8197848 heartbeat IPC: 1.22 cumulative IPC: 1.22 (Simulation time: 00 hr 02 min 23 sec)
Heartbeat CPU 0 instructions: 20000004 cycles: 15184409 heartbeat IPC: 1.431 cumulative IPC: 1.317 (Simulation time: 00 hr 04 min 36 sec)
Warmup finished CPU 0 instructions: 20000004 cycles: 15184409 cumulative IPC: 1.317 (Simulation time: 00 hr 04 min 36 sec)
Warmup complete CPU 0 instructions: 20000004 cycles: 15184409 cumulative IPC: 1.317 (Simulation time: 00 hr 04 min 36 sec)
Heartbeat CPU 0 instructions: 30000010 cycles: 44100807 heartbeat IPC: 0.3458 cumulative IPC: 0.3458 (Simulation time: 00 hr 09 min 59 sec)
Heartbeat CPU 0 instructions: 40000016 cycles: 73361487 heartbeat IPC: 0.3418 cumulative IPC: 0.3438 (Simulation time: 00 hr 15 min 28 sec)
Heartbeat CPU 0 instructions: 50000018 cycles: 102502769 heartbeat IPC: 0.3432 cumulative IPC: 0.3436 (Simulation time: 00 hr 21 min 02 sec)
Simulation finished CPU 0 instructions: 40000007 cycles: 114789713 cumulative IPC: 0.3485 (Simulation time: 00 hr 26 min 19 sec)
Simulation complete CPU 0 instructions: 40000007 cycles: 114789713 cumulative IPC: 0.3485 (Simulation time: 00 hr 26 min 19 sec)

ChampSim completed all CPUs

=== Simulation ===
CPU 0 runs traces/A2/620.omnetpp_s-874B.champsimtrace.xz

Region of Interest Statistics

CPU 0 cumulative IPC: 0.3485 instructions: 40000007 cycles: 114789713
CPU 0 Branch Prediction Accuracy: 96.17% MPKI: 7.982 Average ROB Occupancy at Mispredict: 48.36
Branch type MPKI
BRANCH_DIRECT_JUMP: 0.9497
BRANCH_INDIRECT: 0.1156
BRANCH_CONDITIONAL: 5.794
BRANCH_DIRECT_CALL: 0.0024
BRANCH_INDIRECT_CALL: 0.7288
BRANCH_RETURN: 0.3916

cpu0->cpu0_STLB TOTAL        ACCESS:     663445 HIT:     552613 MISS:     110832 MSHR_MERGE:          0
cpu0->cpu0_STLB LOAD         ACCESS:     663445 HIT:     552613 MISS:     110832 MSHR_MERGE:          0
cpu0->cpu0_STLB RFO          ACCESS:          0 HIT:          0 MISS:          0 MSHR_MERGE:          0
cpu0->cpu0_STLB PREFETCH     ACCESS:          0 HIT:          0 MISS:          0 MSHR_MERGE:          0
cpu0->cpu0_STLB WRITE        ACCESS:          0 HIT:          0 MISS:          0 MSHR_MERGE:          0
cpu0->cpu0_STLB TRANSLATION  ACCESS:          0 HIT:          0 MISS:          0 MSHR_MERGE:          0
cpu0->cpu0_STLB PREFETCH REQUESTED:          0 ISSUED:          0 USEFUL:          0 USELESS:          0
cpu0->cpu0_STLB AVERAGE MISS LATENCY: 328.6 cycles
cpu0->cpu0_L2C TOTAL        ACCESS:    1522927 HIT:     685842 MISS:     837085 MSHR_MERGE:          2
cpu0->cpu0_L2C LOAD         ACCESS:     749790 HIT:     228116 MISS:     521674 MSHR_MERGE:          0
cpu0->cpu0_L2C RFO          ACCESS:     111040 HIT:      25783 MISS:      85257 MSHR_MERGE:          0
cpu0->cpu0_L2C PREFETCH     ACCESS:      18397 HIT:       8449 MISS:       9948 MSHR_MERGE:          2
cpu0->cpu0_L2C WRITE        ACCESS:     406702 HIT:     404972 MISS:       1730 MSHR_MERGE:          0
cpu0->cpu0_L2C TRANSLATION  ACCESS:     236998 HIT:      18522 MISS:     218476 MSHR_MERGE:          0
cpu0->cpu0_L2C PREFETCH REQUESTED:      18397 ISSUED:      18397 USEFUL:       5629 USELESS:       4260
cpu0->cpu0_L2C AVERAGE MISS LATENCY: 139.1 cycles
cpu0->cpu0_L1I TOTAL        ACCESS:    5604752 HIT:    5588460 MISS:      16292 MSHR_MERGE:       1921
cpu0->cpu0_L1I LOAD         ACCESS:    5604752 HIT:    5588460 MISS:      16292 MSHR_MERGE:       1921
cpu0->cpu0_L1I RFO          ACCESS:          0 HIT:          0 MISS:          0 MSHR_MERGE:          0
cpu0->cpu0_L1I PREFETCH     ACCESS:          0 HIT:          0 MISS:          0 MSHR_MERGE:          0
cpu0->cpu0_L1I WRITE        ACCESS:          0 HIT:          0 MISS:          0 MSHR_MERGE:          0
cpu0->cpu0_L1I TRANSLATION  ACCESS:          0 HIT:          0 MISS:          0 MSHR_MERGE:          0
cpu0->cpu0_L1I PREFETCH REQUESTED:          0 ISSUED:          0 USEFUL:          0 USELESS:          0
cpu0->cpu0_L1I AVERAGE MISS LATENCY: 25.4 cycles
cpu0->cpu0_L1D TOTAL        ACCESS:   14700661 HIT:   13265010 MISS:    1435651 MSHR_MERGE:     352187
cpu0->cpu0_L1D LOAD         ACCESS:    7299724 HIT:    6403440 MISS:     896284 MSHR_MERGE:     160861
cpu0->cpu0_L1D RFO          ACCESS:          0 HIT:          0 MISS:          0 MSHR_MERGE:          0
cpu0->cpu0_L1D PREFETCH     ACCESS:          0 HIT:          0 MISS:          0 MSHR_MERGE:          0
cpu0->cpu0_L1D WRITE        ACCESS:    7157472 HIT:    6855356 MISS:     302116 MSHR_MERGE:     191073
cpu0->cpu0_L1D TRANSLATION  ACCESS:     243465 HIT:       6214 MISS:     237251 MSHR_MERGE:        253
cpu0->cpu0_L1D PREFETCH REQUESTED:          0 ISSUED:          0 USEFUL:          0 USELESS:          0
cpu0->cpu0_L1D AVERAGE MISS LATENCY: 114.7 cycles
cpu0->cpu0_ITLB TOTAL        ACCESS:    5161199 HIT:    5161175 MISS:         24 MSHR_MERGE:          9
cpu0->cpu0_ITLB LOAD         ACCESS:    5161199 HIT:    5161175 MISS:         24 MSHR_MERGE:          9
cpu0->cpu0_ITLB RFO          ACCESS:          0 HIT:          0 MISS:          0 MSHR_MERGE:          0
cpu0->cpu0_ITLB PREFETCH     ACCESS:          0 HIT:          0 MISS:          0 MSHR_MERGE:          0
cpu0->cpu0_ITLB WRITE        ACCESS:          0 HIT:          0 MISS:          0 MSHR_MERGE:          0
cpu0->cpu0_ITLB TRANSLATION  ACCESS:          0 HIT:          0 MISS:          0 MSHR_MERGE:          0
cpu0->cpu0_ITLB PREFETCH REQUESTED:          0 ISSUED:          0 USEFUL:          0 USELESS:          0
cpu0->cpu0_ITLB AVERAGE MISS LATENCY: 607.7 cycles
cpu0->cpu0_DTLB TOTAL        ACCESS:   13484739 HIT:   12722929 MISS:     761810 MSHR_MERGE:      98379
cpu0->cpu0_DTLB LOAD         ACCESS:   13484739 HIT:   12722929 MISS:     761810 MSHR_MERGE:      98379
cpu0->cpu0_DTLB RFO          ACCESS:          0 HIT:          0 MISS:          0 MSHR_MERGE:          0
cpu0->cpu0_DTLB PREFETCH     ACCESS:          0 HIT:          0 MISS:          0 MSHR_MERGE:          0
cpu0->cpu0_DTLB WRITE        ACCESS:          0 HIT:          0 MISS:          0 MSHR_MERGE:          0
cpu0->cpu0_DTLB TRANSLATION  ACCESS:          0 HIT:          0 MISS:          0 MSHR_MERGE:          0
cpu0->cpu0_DTLB PREFETCH REQUESTED:          0 ISSUED:          0 USEFUL:          0 USELESS:          0
cpu0->cpu0_DTLB AVERAGE MISS LATENCY: 59.06 cycles
cpu0->LLC TOTAL        ACCESS:    1141007 HIT:     260536 MISS:     880471 MSHR_MERGE:          0
cpu0->LLC LOAD         ACCESS:     521674 HIT:      99320 MISS:     422354 MSHR_MERGE:          0
cpu0->LLC RFO          ACCESS:      85257 HIT:      17437 MISS:      67820 MSHR_MERGE:          0
cpu0->LLC PREFETCH     ACCESS:       9946 HIT:        800 MISS:       9146 MSHR_MERGE:          0
cpu0->LLC WRITE        ACCESS:     305654 HIT:      97604 MISS:     208050 MSHR_MERGE:          0
cpu0->LLC TRANSLATION  ACCESS:     218476 HIT:      45375 MISS:     173101 MSHR_MERGE:          0
cpu0->LLC PREFETCH REQUESTED:          0 ISSUED:          0 USEFUL:          0 USELESS:          0
cpu0->LLC AVERAGE MISS LATENCY: 118.2 cycles

DRAM Statistics

Channel 0 RQ ROW_BUFFER_HIT:      11115
  ROW_BUFFER_MISS:     661266
  AVG DBUS CONGESTED CYCLE: 23.65
Channel 0 WQ ROW_BUFFER_HIT:      60825
  ROW_BUFFER_MISS:     166805
  FULL:          0
Channel 0 REFRESHES ISSUED:       9566
