[VMEM] WARNING: physical memory size is smaller than virtual memory size.
WARNING: option --warmup_instructions is deprecated. Use --warmup-instructions instead.
WARNING: option --simulation_instructions is deprecated. Use --simulation-instructions instead.

*** ChampSim Multicore Out-of-Order Simulator ***
Warmup Instructions: 20000000
Simulation Instructions: 50000000
Number of CPUs: 1
Page size: 8192

Off-chip DRAM Size: 16 GiB Channels: 1 Width: 64-bit Data Rate: 3205 MT/s
Heartbeat CPU 0 instructions: 10000000 cycles: 5209999 heartbeat IPC: 1.919 cumulative IPC: 1.919 (Simulation time: 00 hr 00 min 47 sec)
Heartbeat CPU 0 instructions: 20000002 cycles: 10328363 heartbeat IPC: 1.954 cumulative IPC: 1.936 (Simulation time: 00 hr 01 min 35 sec)
Warmup finished CPU 0 instructions: 20000002 cycles: 10328363 cumulative IPC: 1.936 (Simulation time: 00 hr 01 min 35 sec)
Warmup complete CPU 0 instructions: 20000002 cycles: 10328363 cumulative IPC: 1.936 (Simulation time: 00 hr 01 min 35 sec)
Heartbeat CPU 0 instructions: 30000005 cycles: 50609134 heartbeat IPC: 0.2483 cumulative IPC: 0.2483 (Simulation time: 00 hr 04 min 36 sec)
Heartbeat CPU 0 instructions: 40000005 cycles: 90476309 heartbeat IPC: 0.2508 cumulative IPC: 0.2495 (Simulation time: 00 hr 07 min 44 sec)
Heartbeat CPU 0 instructions: 50000006 cycles: 130852364 heartbeat IPC: 0.2477 cumulative IPC: 0.2489 (Simulation time: 00 hr 10 min 46 sec)
Heartbeat CPU 0 instructions: 60000007 cycles: 170751425 heartbeat IPC: 0.2506 cumulative IPC: 0.2493 (Simulation time: 00 hr 13 min 48 sec)
Simulation finished CPU 0 instructions: 50000002 cycles: 200848485 cumulative IPC: 0.2489 (Simulation time: 00 hr 16 min 52 sec)
Simulation complete CPU 0 instructions: 50000002 cycles: 200848485 cumulative IPC: 0.2489 (Simulation time: 00 hr 16 min 52 sec)

ChampSim completed all CPUs

=== Simulation ===
CPU 0 runs traces/605.mcf_s-1152B.champsimtrace.xz

Region of Interest Statistics

CPU 0 cumulative IPC: 0.2489 instructions: 50000002 cycles: 200848485
CPU 0 Branch Prediction Accuracy: 90.19% MPKI: 24.48 Average ROB Occupancy at Mispredict: 20.04
Branch type MPKI
BRANCH_DIRECT_JUMP: 0.2057
BRANCH_INDIRECT: 0
BRANCH_CONDITIONAL: 24.27
BRANCH_DIRECT_CALL: 0
BRANCH_INDIRECT_CALL: 0.0036
BRANCH_RETURN: 2e-05

cpu0->cpu0_STLB TOTAL        ACCESS:    1006312 HIT:    1000555 MISS:       5757 MSHR_MERGE:          0
cpu0->cpu0_STLB LOAD         ACCESS:    1006312 HIT:    1000555 MISS:       5757 MSHR_MERGE:          0
cpu0->cpu0_STLB RFO          ACCESS:          0 HIT:          0 MISS:          0 MSHR_MERGE:          0
cpu0->cpu0_STLB PREFETCH     ACCESS:          0 HIT:          0 MISS:          0 MSHR_MERGE:          0
cpu0->cpu0_STLB WRITE        ACCESS:          0 HIT:          0 MISS:          0 MSHR_MERGE:          0
cpu0->cpu0_STLB TRANSLATION  ACCESS:          0 HIT:          0 MISS:          0 MSHR_MERGE:          0
cpu0->cpu0_STLB PREFETCH REQUESTED:          0 ISSUED:          0 USEFUL:          0 USELESS:          0
cpu0->cpu0_STLB AVERAGE MISS LATENCY: 611.5 cycles
cpu0->cpu0_L2C TOTAL        ACCESS:    3014265 HIT:     744433 MISS:    2269832 MSHR_MERGE:          0
cpu0->cpu0_L2C LOAD         ACCESS:    2552738 HIT:     420156 MISS:    2132582 MSHR_MERGE:          0
cpu0->cpu0_L2C RFO          ACCESS:     187389 HIT:      57252 MISS:     130137 MSHR_MERGE:          0
cpu0->cpu0_L2C PREFETCH     ACCESS:          0 HIT:          0 MISS:          0 MSHR_MERGE:          0
cpu0->cpu0_L2C WRITE        ACCESS:     265795 HIT:     265480 MISS:        315 MSHR_MERGE:          0
cpu0->cpu0_L2C TRANSLATION  ACCESS:       8343 HIT:       1545 MISS:       6798 MSHR_MERGE:          0
cpu0->cpu0_L2C PREFETCH REQUESTED:          0 ISSUED:          0 USEFUL:          0 USELESS:          0
cpu0->cpu0_L2C AVERAGE MISS LATENCY: 71.78 cycles
cpu0->cpu0_L1I TOTAL        ACCESS:     646361 HIT:     646361 MISS:          0 MSHR_MERGE:          0
cpu0->cpu0_L1I LOAD         ACCESS:     646361 HIT:     646361 MISS:          0 MSHR_MERGE:          0
cpu0->cpu0_L1I RFO          ACCESS:          0 HIT:          0 MISS:          0 MSHR_MERGE:          0
cpu0->cpu0_L1I PREFETCH     ACCESS:          0 HIT:          0 MISS:          0 MSHR_MERGE:          0
cpu0->cpu0_L1I WRITE        ACCESS:          0 HIT:          0 MISS:          0 MSHR_MERGE:          0
cpu0->cpu0_L1I TRANSLATION  ACCESS:          0 HIT:          0 MISS:          0 MSHR_MERGE:          0
cpu0->cpu0_L1I PREFETCH REQUESTED:          0 ISSUED:          0 USEFUL:          0 USELESS:          0
cpu0->cpu0_L1I AVERAGE MISS LATENCY: - cycles
cpu0->cpu0_L1D TOTAL        ACCESS:   18007278 HIT:   14352818 MISS:    3654460 MSHR_MERGE:     905986
cpu0->cpu0_L1D LOAD         ACCESS:   12831845 HIT:    9665419 MISS:    3166426 MSHR_MERGE:     613687
cpu0->cpu0_L1D RFO          ACCESS:          0 HIT:          0 MISS:          0 MSHR_MERGE:          0
cpu0->cpu0_L1D PREFETCH     ACCESS:          0 HIT:          0 MISS:          0 MSHR_MERGE:          0
cpu0->cpu0_L1D WRITE        ACCESS:    5163823 HIT:    4684132 MISS:     479691 MSHR_MERGE:     292299
cpu0->cpu0_L1D TRANSLATION  ACCESS:      11610 HIT:       3267 MISS:       8343 MSHR_MERGE:          0
cpu0->cpu0_L1D PREFETCH REQUESTED:          0 ISSUED:          0 USEFUL:          0 USELESS:          0
cpu0->cpu0_L1D AVERAGE MISS LATENCY: 68.1 cycles
cpu0->cpu0_ITLB TOTAL        ACCESS:     592491 HIT:     592491 MISS:          0 MSHR_MERGE:          0
cpu0->cpu0_ITLB LOAD         ACCESS:     592491 HIT:     592491 MISS:          0 MSHR_MERGE:          0
cpu0->cpu0_ITLB RFO          ACCESS:          0 HIT:          0 MISS:          0 MSHR_MERGE:          0
cpu0->cpu0_ITLB PREFETCH     ACCESS:          0 HIT:          0 MISS:          0 MSHR_MERGE:          0
cpu0->cpu0_ITLB WRITE        ACCESS:          0 HIT:          0 MISS:          0 MSHR_MERGE:          0
cpu0->cpu0_ITLB TRANSLATION  ACCESS:          0 HIT:          0 MISS:          0 MSHR_MERGE:          0
cpu0->cpu0_ITLB PREFETCH REQUESTED:          0 ISSUED:          0 USEFUL:          0 USELESS:          0
cpu0->cpu0_ITLB AVERAGE MISS LATENCY: - cycles
cpu0->cpu0_DTLB TOTAL        ACCESS:   16867512 HIT:   15674944 MISS:    1192568 MSHR_MERGE:     186256
cpu0->cpu0_DTLB LOAD         ACCESS:   16867512 HIT:   15674944 MISS:    1192568 MSHR_MERGE:     186256
cpu0->cpu0_DTLB RFO          ACCESS:          0 HIT:          0 MISS:          0 MSHR_MERGE:          0
cpu0->cpu0_DTLB PREFETCH     ACCESS:          0 HIT:          0 MISS:          0 MSHR_MERGE:          0
cpu0->cpu0_DTLB WRITE        ACCESS:          0 HIT:          0 MISS:          0 MSHR_MERGE:          0
cpu0->cpu0_DTLB TRANSLATION  ACCESS:          0 HIT:          0 MISS:          0 MSHR_MERGE:          0
cpu0->cpu0_DTLB PREFETCH REQUESTED:          0 ISSUED:          0 USEFUL:          0 USELESS:          0
cpu0->cpu0_DTLB AVERAGE MISS LATENCY: 7.504 cycles
cpu0->LLC TOTAL        ACCESS:    2470278 HIT:    1441869 MISS:    1028409 MSHR_MERGE:          0
cpu0->LLC LOAD         ACCESS:    2132582 HIT:    1116729 MISS:    1015853 MSHR_MERGE:          0
cpu0->LLC RFO          ACCESS:     130137 HIT:     128465 MISS:       1672 MSHR_MERGE:          0
cpu0->LLC PREFETCH     ACCESS:          0 HIT:          0 MISS:          0 MSHR_MERGE:          0
cpu0->LLC WRITE        ACCESS:     200761 HIT:     196668 MISS:       4093 MSHR_MERGE:          0
cpu0->LLC TRANSLATION  ACCESS:       6798 HIT:          7 MISS:       6791 MSHR_MERGE:          0
cpu0->LLC PREFETCH REQUESTED:          0 ISSUED:          0 USEFUL:          0 USELESS:          0
cpu0->LLC AVERAGE MISS LATENCY: 122.1 cycles

DRAM Statistics

Channel 0 RQ ROW_BUFFER_HIT:     186565
  ROW_BUFFER_MISS:     837744
  AVG DBUS CONGESTED CYCLE: 22.88
Channel 0 WQ ROW_BUFFER_HIT:        345
  ROW_BUFFER_MISS:       6209
  FULL:          0
Channel 0 REFRESHES ISSUED:      16738
