[VMEM] WARNING: physical memory size is smaller than virtual memory size.
WARNING: option --warmup_instructions is deprecated. Use --warmup-instructions instead.
WARNING: option --simulation_instructions is deprecated. Use --simulation-instructions instead.

*** ChampSim Multicore Out-of-Order Simulator ***
Warmup Instructions: 20000000
Simulation Instructions: 50000000
Number of CPUs: 1
Page size: 8192

Off-chip DRAM Size: 16 GiB Channels: 1 Width: 64-bit Data Rate: 3205 MT/s
Heartbeat CPU 0 instructions: 10000000 cycles: 4269758 heartbeat IPC: 2.342 cumulative IPC: 2.342 (Simulation time: 00 hr 00 min 44 sec)
Heartbeat CPU 0 instructions: 20000000 cycles: 8531253 heartbeat IPC: 2.347 cumulative IPC: 2.344 (Simulation time: 00 hr 01 min 29 sec)
Warmup finished CPU 0 instructions: 20000000 cycles: 8531253 cumulative IPC: 2.344 (Simulation time: 00 hr 01 min 29 sec)
Warmup complete CPU 0 instructions: 20000000 cycles: 8531253 cumulative IPC: 2.344 (Simulation time: 00 hr 01 min 29 sec)
Heartbeat CPU 0 instructions: 30000003 cycles: 20998617 heartbeat IPC: 0.8021 cumulative IPC: 0.8021 (Simulation time: 00 hr 02 min 58 sec)
Heartbeat CPU 0 instructions: 40000004 cycles: 33541607 heartbeat IPC: 0.7973 cumulative IPC: 0.7997 (Simulation time: 00 hr 04 min 28 sec)
Heartbeat CPU 0 instructions: 50000011 cycles: 46002116 heartbeat IPC: 0.8025 cumulative IPC: 0.8006 (Simulation time: 00 hr 05 min 59 sec)
Heartbeat CPU 0 instructions: 60000013 cycles: 58446773 heartbeat IPC: 0.8036 cumulative IPC: 0.8014 (Simulation time: 00 hr 07 min 32 sec)
Simulation finished CPU 0 instructions: 50000003 cycles: 62432171 cumulative IPC: 0.8009 (Simulation time: 00 hr 09 min 03 sec)
Simulation complete CPU 0 instructions: 50000003 cycles: 62432171 cumulative IPC: 0.8009 (Simulation time: 00 hr 09 min 03 sec)

ChampSim completed all CPUs

=== Simulation ===
CPU 0 runs traces/603.bwaves_s-1740B.champsimtrace.xz

Region of Interest Statistics

CPU 0 cumulative IPC: 0.8009 instructions: 50000003 cycles: 62432171
CPU 0 Branch Prediction Accuracy: 99.97% MPKI: 0.00734 Average ROB Occupancy at Mispredict: 190
Branch type MPKI
BRANCH_DIRECT_JUMP: 0
BRANCH_INDIRECT: 0
BRANCH_CONDITIONAL: 0.00734
BRANCH_DIRECT_CALL: 0
BRANCH_INDIRECT_CALL: 0
BRANCH_RETURN: 0

cpu0->cpu0_STLB TOTAL        ACCESS:       7425 HIT:        365 MISS:       7060 MSHR_MERGE:          0
cpu0->cpu0_STLB LOAD         ACCESS:       7425 HIT:        365 MISS:       7060 MSHR_MERGE:          0
cpu0->cpu0_STLB RFO          ACCESS:          0 HIT:          0 MISS:          0 MSHR_MERGE:          0
cpu0->cpu0_STLB PREFETCH     ACCESS:          0 HIT:          0 MISS:          0 MSHR_MERGE:          0
cpu0->cpu0_STLB WRITE        ACCESS:          0 HIT:          0 MISS:          0 MSHR_MERGE:          0
cpu0->cpu0_STLB TRANSLATION  ACCESS:          0 HIT:          0 MISS:          0 MSHR_MERGE:          0
cpu0->cpu0_STLB PREFETCH REQUESTED:          0 ISSUED:          0 USEFUL:          0 USELESS:          0
cpu0->cpu0_STLB AVERAGE MISS LATENCY: 692 cycles
cpu0->cpu0_L2C TOTAL        ACCESS:    1103301 HIT:     135655 MISS:     967646 MSHR_MERGE:          0
cpu0->cpu0_L2C LOAD         ACCESS:    1018890 HIT:      86256 MISS:     932634 MSHR_MERGE:          0
cpu0->cpu0_L2C RFO          ACCESS:      33747 HIT:       9385 MISS:      24362 MSHR_MERGE:          0
cpu0->cpu0_L2C PREFETCH     ACCESS:          0 HIT:          0 MISS:          0 MSHR_MERGE:          0
cpu0->cpu0_L2C WRITE        ACCESS:      37171 HIT:      36903 MISS:        268 MSHR_MERGE:          0
cpu0->cpu0_L2C TRANSLATION  ACCESS:      13493 HIT:       3111 MISS:      10382 MSHR_MERGE:          0
cpu0->cpu0_L2C PREFETCH REQUESTED:          0 ISSUED:          0 USEFUL:          0 USELESS:          0
cpu0->cpu0_L2C AVERAGE MISS LATENCY: 195.3 cycles
cpu0->cpu0_L1I TOTAL        ACCESS:   11221704 HIT:   11221704 MISS:          0 MSHR_MERGE:          0
cpu0->cpu0_L1I LOAD         ACCESS:   11221704 HIT:   11221704 MISS:          0 MSHR_MERGE:          0
cpu0->cpu0_L1I RFO          ACCESS:          0 HIT:          0 MISS:          0 MSHR_MERGE:          0
cpu0->cpu0_L1I PREFETCH     ACCESS:          0 HIT:          0 MISS:          0 MSHR_MERGE:          0
cpu0->cpu0_L1I WRITE        ACCESS:          0 HIT:          0 MISS:          0 MSHR_MERGE:          0
cpu0->cpu0_L1I TRANSLATION  ACCESS:          0 HIT:          0 MISS:          0 MSHR_MERGE:          0
cpu0->cpu0_L1I PREFETCH REQUESTED:          0 ISSUED:          0 USEFUL:          0 USELESS:          0
cpu0->cpu0_L1I AVERAGE MISS LATENCY: - cycles
cpu0->cpu0_L1D TOTAL        ACCESS:   16887813 HIT:   15537260 MISS:    1350553 MSHR_MERGE:     284353
cpu0->cpu0_L1D LOAD         ACCESS:   14057085 HIT:   12770698 MISS:    1286387 MSHR_MERGE:     267451
cpu0->cpu0_L1D RFO          ACCESS:          0 HIT:          0 MISS:          0 MSHR_MERGE:          0
cpu0->cpu0_L1D PREFETCH     ACCESS:          0 HIT:          0 MISS:          0 MSHR_MERGE:          0
cpu0->cpu0_L1D WRITE        ACCESS:    2816699 HIT:    2766269 MISS:      50430 MSHR_MERGE:      16659
cpu0->cpu0_L1D TRANSLATION  ACCESS:      14029 HIT:        293 MISS:      13736 MSHR_MERGE:        243
cpu0->cpu0_L1D PREFETCH REQUESTED:          0 ISSUED:          0 USEFUL:          0 USELESS:          0
cpu0->cpu0_L1D AVERAGE MISS LATENCY: 186.2 cycles
cpu0->cpu0_ITLB TOTAL        ACCESS:   10183212 HIT:   10183212 MISS:          0 MSHR_MERGE:          0
cpu0->cpu0_ITLB LOAD         ACCESS:   10183212 HIT:   10183212 MISS:          0 MSHR_MERGE:          0
cpu0->cpu0_ITLB RFO          ACCESS:          0 HIT:          0 MISS:          0 MSHR_MERGE:          0
cpu0->cpu0_ITLB PREFETCH     ACCESS:          0 HIT:          0 MISS:          0 MSHR_MERGE:          0
cpu0->cpu0_ITLB WRITE        ACCESS:          0 HIT:          0 MISS:          0 MSHR_MERGE:          0
cpu0->cpu0_ITLB TRANSLATION  ACCESS:          0 HIT:          0 MISS:          0 MSHR_MERGE:          0
cpu0->cpu0_ITLB PREFETCH REQUESTED:          0 ISSUED:          0 USEFUL:          0 USELESS:          0
cpu0->cpu0_ITLB AVERAGE MISS LATENCY: - cycles
cpu0->cpu0_DTLB TOTAL        ACCESS:   16265297 HIT:   16252983 MISS:      12314 MSHR_MERGE:       4889
cpu0->cpu0_DTLB LOAD         ACCESS:   16265297 HIT:   16252983 MISS:      12314 MSHR_MERGE:       4889
cpu0->cpu0_DTLB RFO          ACCESS:          0 HIT:          0 MISS:          0 MSHR_MERGE:          0
cpu0->cpu0_DTLB PREFETCH     ACCESS:          0 HIT:          0 MISS:          0 MSHR_MERGE:          0
cpu0->cpu0_DTLB WRITE        ACCESS:          0 HIT:          0 MISS:          0 MSHR_MERGE:          0
cpu0->cpu0_DTLB TRANSLATION  ACCESS:          0 HIT:          0 MISS:          0 MSHR_MERGE:          0
cpu0->cpu0_DTLB PREFETCH REQUESTED:          0 ISSUED:          0 USEFUL:          0 USELESS:          0
cpu0->cpu0_DTLB AVERAGE MISS LATENCY: 662.9 cycles
cpu0->LLC TOTAL        ACCESS:     992058 HIT:       4084 MISS:     987974 MSHR_MERGE:          0
cpu0->LLC LOAD         ACCESS:     932634 HIT:       1365 MISS:     931269 MSHR_MERGE:          0
cpu0->LLC RFO          ACCESS:      24362 HIT:          0 MISS:      24362 MSHR_MERGE:          0
cpu0->LLC PREFETCH     ACCESS:          0 HIT:          0 MISS:          0 MSHR_MERGE:          0
cpu0->LLC WRITE        ACCESS:      24680 HIT:       2711 MISS:      21969 MSHR_MERGE:          0
cpu0->LLC TRANSLATION  ACCESS:      10382 HIT:          8 MISS:      10374 MSHR_MERGE:          0
cpu0->LLC PREFETCH REQUESTED:          0 ISSUED:          0 USEFUL:          0 USELESS:          0
cpu0->LLC AVERAGE MISS LATENCY: 174.9 cycles

DRAM Statistics

Channel 0 RQ ROW_BUFFER_HIT:        710
  ROW_BUFFER_MISS:     965294
  AVG DBUS CONGESTED CYCLE: 5.978
Channel 0 WQ ROW_BUFFER_HIT:       4577
  ROW_BUFFER_MISS:      19994
  FULL:          0
Channel 0 REFRESHES ISSUED:       5203
