[VMEM] WARNING: physical memory size is smaller than virtual memory size.
WARNING: option --warmup_instructions is deprecated. Use --warmup-instructions instead.
WARNING: option --simulation_instructions is deprecated. Use --simulation-instructions instead.

*** ChampSim Multicore Out-of-Order Simulator ***
Warmup Instructions: 20000000
Simulation Instructions: 50000000
Number of CPUs: 1
Page size: 8192

Off-chip DRAM Size: 16 GiB Channels: 1 Width: 64-bit Data Rate: 3205 MT/s
Heartbeat CPU 0 instructions: 10000000 cycles: 8199890 heartbeat IPC: 1.22 cumulative IPC: 1.22 (Simulation time: 00 hr 01 min 16 sec)
Heartbeat CPU 0 instructions: 20000004 cycles: 15187685 heartbeat IPC: 1.431 cumulative IPC: 1.317 (Simulation time: 00 hr 02 min 24 sec)
Warmup finished CPU 0 instructions: 20000004 cycles: 15187685 cumulative IPC: 1.317 (Simulation time: 00 hr 02 min 24 sec)
Warmup complete CPU 0 instructions: 20000004 cycles: 15187685 cumulative IPC: 1.317 (Simulation time: 00 hr 02 min 24 sec)
Heartbeat CPU 0 instructions: 30000010 cycles: 44309400 heartbeat IPC: 0.3434 cumulative IPC: 0.3434 (Simulation time: 00 hr 05 min 07 sec)
Heartbeat CPU 0 instructions: 40000016 cycles: 73725788 heartbeat IPC: 0.3399 cumulative IPC: 0.3417 (Simulation time: 00 hr 07 min 53 sec)
Heartbeat CPU 0 instructions: 50000018 cycles: 103021244 heartbeat IPC: 0.3413 cumulative IPC: 0.3416 (Simulation time: 00 hr 10 min 39 sec)
Heartbeat CPU 0 instructions: 60000019 cycles: 130651223 heartbeat IPC: 0.3619 cumulative IPC: 0.3464 (Simulation time: 00 hr 13 min 17 sec)
Simulation finished CPU 0 instructions: 50000000 cycles: 142301163 cumulative IPC: 0.3514 (Simulation time: 00 hr 15 min 50 sec)
Simulation complete CPU 0 instructions: 50000000 cycles: 142301163 cumulative IPC: 0.3514 (Simulation time: 00 hr 15 min 50 sec)

ChampSim completed all CPUs

=== Simulation ===
CPU 0 runs traces/620.omnetpp_s-874B.champsimtrace.xz

Region of Interest Statistics

CPU 0 cumulative IPC: 0.3514 instructions: 50000000 cycles: 142301163
CPU 0 Branch Prediction Accuracy: 96.16% MPKI: 7.99 Average ROB Occupancy at Mispredict: 48.33
Branch type MPKI
BRANCH_DIRECT_JUMP: 0.9384
BRANCH_INDIRECT: 0.1208
BRANCH_CONDITIONAL: 5.805
BRANCH_DIRECT_CALL: 0.00236
BRANCH_INDIRECT_CALL: 0.7298
BRANCH_RETURN: 0.3936

cpu0->cpu0_STLB TOTAL        ACCESS:     828421 HIT:     691321 MISS:     137100 MSHR_MERGE:          0
cpu0->cpu0_STLB LOAD         ACCESS:     828421 HIT:     691321 MISS:     137100 MSHR_MERGE:          0
cpu0->cpu0_STLB RFO          ACCESS:          0 HIT:          0 MISS:          0 MSHR_MERGE:          0
cpu0->cpu0_STLB PREFETCH     ACCESS:          0 HIT:          0 MISS:          0 MSHR_MERGE:          0
cpu0->cpu0_STLB WRITE        ACCESS:          0 HIT:          0 MISS:          0 MSHR_MERGE:          0
cpu0->cpu0_STLB TRANSLATION  ACCESS:          0 HIT:          0 MISS:          0 MSHR_MERGE:          0
cpu0->cpu0_STLB PREFETCH REQUESTED:          0 ISSUED:          0 USEFUL:          0 USELESS:          0
cpu0->cpu0_STLB AVERAGE MISS LATENCY: 324.3 cycles
cpu0->cpu0_L2C TOTAL        ACCESS:    1873328 HIT:     840076 MISS:    1033252 MSHR_MERGE:          0
cpu0->cpu0_L2C LOAD         ACCESS:     934141 HIT:     279601 MISS:     654540 MSHR_MERGE:          0
cpu0->cpu0_L2C RFO          ACCESS:     138853 HIT:      32711 MISS:     106142 MSHR_MERGE:          0
cpu0->cpu0_L2C PREFETCH     ACCESS:          0 HIT:          0 MISS:          0 MSHR_MERGE:          0
cpu0->cpu0_L2C WRITE        ACCESS:     507046 HIT:     504860 MISS:       2186 MSHR_MERGE:          0
cpu0->cpu0_L2C TRANSLATION  ACCESS:     293288 HIT:      22904 MISS:     270384 MSHR_MERGE:          0
cpu0->cpu0_L2C PREFETCH REQUESTED:          0 ISSUED:          0 USEFUL:          0 USELESS:          0
cpu0->cpu0_L2C AVERAGE MISS LATENCY: 137.8 cycles
cpu0->cpu0_L1I TOTAL        ACCESS:    7002241 HIT:    6981366 MISS:      20875 MSHR_MERGE:       2456
cpu0->cpu0_L1I LOAD         ACCESS:    7002241 HIT:    6981366 MISS:      20875 MSHR_MERGE:       2456
cpu0->cpu0_L1I RFO          ACCESS:          0 HIT:          0 MISS:          0 MSHR_MERGE:          0
cpu0->cpu0_L1I PREFETCH     ACCESS:          0 HIT:          0 MISS:          0 MSHR_MERGE:          0
cpu0->cpu0_L1I WRITE        ACCESS:          0 HIT:          0 MISS:          0 MSHR_MERGE:          0
cpu0->cpu0_L1I TRANSLATION  ACCESS:          0 HIT:          0 MISS:          0 MSHR_MERGE:          0
cpu0->cpu0_L1I PREFETCH REQUESTED:          0 ISSUED:          0 USEFUL:          0 USELESS:          0
cpu0->cpu0_L1I AVERAGE MISS LATENCY: 27.45 cycles
cpu0->cpu0_L1D TOTAL        ACCESS:   18374664 HIT:   16589288 MISS:    1785376 MSHR_MERGE:     437504
cpu0->cpu0_L1D LOAD         ACCESS:    9121231 HIT:    8005303 MISS:    1115928 MSHR_MERGE:     200202
cpu0->cpu0_L1D RFO          ACCESS:          0 HIT:          0 MISS:          0 MSHR_MERGE:          0
cpu0->cpu0_L1D PREFETCH     ACCESS:          0 HIT:          0 MISS:          0 MSHR_MERGE:          0
cpu0->cpu0_L1D WRITE        ACCESS:    8952149 HIT:    8576301 MISS:     375848 MSHR_MERGE:     236990
cpu0->cpu0_L1D TRANSLATION  ACCESS:     301284 HIT:       7684 MISS:     293600 MSHR_MERGE:        312
cpu0->cpu0_L1D PREFETCH REQUESTED:          0 ISSUED:          0 USEFUL:          0 USELESS:          0
cpu0->cpu0_L1D AVERAGE MISS LATENCY: 114.1 cycles
cpu0->cpu0_ITLB TOTAL        ACCESS:    6446928 HIT:    6446726 MISS:        202 MSHR_MERGE:         98
cpu0->cpu0_ITLB LOAD         ACCESS:    6446928 HIT:    6446726 MISS:        202 MSHR_MERGE:         98
cpu0->cpu0_ITLB RFO          ACCESS:          0 HIT:          0 MISS:          0 MSHR_MERGE:          0
cpu0->cpu0_ITLB PREFETCH     ACCESS:          0 HIT:          0 MISS:          0 MSHR_MERGE:          0
cpu0->cpu0_ITLB WRITE        ACCESS:          0 HIT:          0 MISS:          0 MSHR_MERGE:          0
cpu0->cpu0_ITLB TRANSLATION  ACCESS:          0 HIT:          0 MISS:          0 MSHR_MERGE:          0
cpu0->cpu0_ITLB PREFETCH REQUESTED:          0 ISSUED:          0 USEFUL:          0 USELESS:          0
cpu0->cpu0_ITLB AVERAGE MISS LATENCY: 187.1 cycles
cpu0->cpu0_DTLB TOTAL        ACCESS:   16854042 HIT:   15906976 MISS:     947066 MSHR_MERGE:     118748
cpu0->cpu0_DTLB LOAD         ACCESS:   16854042 HIT:   15906976 MISS:     947066 MSHR_MERGE:     118748
cpu0->cpu0_DTLB RFO          ACCESS:          0 HIT:          0 MISS:          0 MSHR_MERGE:          0
cpu0->cpu0_DTLB PREFETCH     ACCESS:          0 HIT:          0 MISS:          0 MSHR_MERGE:          0
cpu0->cpu0_DTLB WRITE        ACCESS:          0 HIT:          0 MISS:          0 MSHR_MERGE:          0
cpu0->cpu0_DTLB TRANSLATION  ACCESS:          0 HIT:          0 MISS:          0 MSHR_MERGE:          0
cpu0->cpu0_DTLB PREFETCH REQUESTED:          0 ISSUED:          0 USEFUL:          0 USELESS:          0
cpu0->cpu0_DTLB AVERAGE MISS LATENCY: 57.82 cycles
cpu0->LLC TOTAL        ACCESS:    1410451 HIT:     337378 MISS:    1073073 MSHR_MERGE:          0
cpu0->LLC LOAD         ACCESS:     654540 HIT:     130272 MISS:     524268 MSHR_MERGE:          0
cpu0->LLC RFO          ACCESS:     106142 HIT:      23656 MISS:      82486 MSHR_MERGE:          0
cpu0->LLC PREFETCH     ACCESS:          0 HIT:          0 MISS:          0 MSHR_MERGE:          0
cpu0->LLC WRITE        ACCESS:     379385 HIT:     126770 MISS:     252615 MSHR_MERGE:          0
cpu0->LLC TRANSLATION  ACCESS:     270384 HIT:      56680 MISS:     213704 MSHR_MERGE:          0
cpu0->LLC PREFETCH REQUESTED:          0 ISSUED:          0 USEFUL:          0 USELESS:          0
cpu0->LLC AVERAGE MISS LATENCY: 118.7 cycles

DRAM Statistics

Channel 0 RQ ROW_BUFFER_HIT:      13134
  ROW_BUFFER_MISS:     807286
  AVG DBUS CONGESTED CYCLE: 23.7
Channel 0 WQ ROW_BUFFER_HIT:      74442
  ROW_BUFFER_MISS:     203301
  FULL:          0
Channel 0 REFRESHES ISSUED:      11859
