[VMEM] WARNING: physical memory size is smaller than virtual memory size.
WARNING: option --warmup_instructions is deprecated. Use --warmup-instructions instead.
WARNING: option --simulation_instructions is deprecated. Use --simulation-instructions instead.

*** ChampSim Multicore Out-of-Order Simulator ***
Warmup Instructions: 20000000
Simulation Instructions: 50000000
Number of CPUs: 1
Page size: 8192

Off-chip DRAM Size: 16 GiB Channels: 1 Width: 64-bit Data Rate: 3205 MT/s
Heartbeat CPU 0 instructions: 10000003 cycles: 2850753 heartbeat IPC: 3.508 cumulative IPC: 3.508 (Simulation time: 00 hr 00 min 33 sec)
Warmup finished CPU 0 instructions: 20000000 cycles: 5689273 cumulative IPC: 3.515 (Simulation time: 00 hr 01 min 06 sec)
Warmup complete CPU 0 instructions: 20000000 cycles: 5689273 cumulative IPC: 3.515 (Simulation time: 00 hr 01 min 06 sec)
Heartbeat CPU 0 instructions: 20000008 cycles: 5689274 heartbeat IPC: 3.523 cumulative IPC: 8 (Simulation time: 00 hr 01 min 06 sec)
Heartbeat CPU 0 instructions: 30000011 cycles: 20591431 heartbeat IPC: 0.671 cumulative IPC: 0.671 (Simulation time: 00 hr 03 min 01 sec)
Heartbeat CPU 0 instructions: 40000012 cycles: 35564326 heartbeat IPC: 0.6679 cumulative IPC: 0.6695 (Simulation time: 00 hr 04 min 58 sec)
Heartbeat CPU 0 instructions: 50000016 cycles: 50485921 heartbeat IPC: 0.6702 cumulative IPC: 0.6697 (Simulation time: 00 hr 06 min 54 sec)
Heartbeat CPU 0 instructions: 60000023 cycles: 65426812 heartbeat IPC: 0.6693 cumulative IPC: 0.6696 (Simulation time: 00 hr 08 min 49 sec)
Simulation finished CPU 0 instructions: 50000004 cycles: 74624891 cumulative IPC: 0.67 (Simulation time: 00 hr 10 min 44 sec)
Simulation complete CPU 0 instructions: 50000004 cycles: 74624891 cumulative IPC: 0.67 (Simulation time: 00 hr 10 min 44 sec)

ChampSim completed all CPUs

=== Simulation ===
CPU 0 runs traces/470.lbm-1274B.champsimtrace.xz

Region of Interest Statistics

CPU 0 cumulative IPC: 0.67 instructions: 50000004 cycles: 74624891
CPU 0 Branch Prediction Accuracy: 99.79% MPKI: 0.02864 Average ROB Occupancy at Mispredict: 188.2
Branch type MPKI
BRANCH_DIRECT_JUMP: 0
BRANCH_INDIRECT: 0
BRANCH_CONDITIONAL: 0.02864
BRANCH_DIRECT_CALL: 0
BRANCH_INDIRECT_CALL: 0
BRANCH_RETURN: 0

cpu0->cpu0_STLB TOTAL        ACCESS:      11115 HIT:       5557 MISS:       5558 MSHR_MERGE:          0
cpu0->cpu0_STLB LOAD         ACCESS:      11115 HIT:       5557 MISS:       5558 MSHR_MERGE:          0
cpu0->cpu0_STLB RFO          ACCESS:          0 HIT:          0 MISS:          0 MSHR_MERGE:          0
cpu0->cpu0_STLB PREFETCH     ACCESS:          0 HIT:          0 MISS:          0 MSHR_MERGE:          0
cpu0->cpu0_STLB WRITE        ACCESS:          0 HIT:          0 MISS:          0 MSHR_MERGE:          0
cpu0->cpu0_STLB TRANSLATION  ACCESS:          0 HIT:          0 MISS:          0 MSHR_MERGE:          0
cpu0->cpu0_STLB PREFETCH REQUESTED:          0 ISSUED:          0 USEFUL:          0 USELESS:          0
cpu0->cpu0_STLB AVERAGE MISS LATENCY: 900.9 cycles
cpu0->cpu0_L2C TOTAL        ACCESS:    4372393 HIT:    2931140 MISS:    1441253 MSHR_MERGE:          0
cpu0->cpu0_L2C LOAD         ACCESS:     355732 HIT:          0 MISS:     355732 MSHR_MERGE:          0
cpu0->cpu0_L2C RFO          ACCESS:    2002766 HIT:     925944 MISS:    1076822 MSHR_MERGE:          0
cpu0->cpu0_L2C PREFETCH     ACCESS:          0 HIT:          0 MISS:          0 MSHR_MERGE:          0
cpu0->cpu0_L2C WRITE        ACCESS:    2002767 HIT:    2002752 MISS:         15 MSHR_MERGE:          0
cpu0->cpu0_L2C TRANSLATION  ACCESS:      11128 HIT:       2444 MISS:       8684 MSHR_MERGE:          0
cpu0->cpu0_L2C PREFETCH REQUESTED:          0 ISSUED:          0 USEFUL:          0 USELESS:          0
cpu0->cpu0_L2C AVERAGE MISS LATENCY: 335.7 cycles
cpu0->cpu0_L1I TOTAL        ACCESS:    7347832 HIT:    7347832 MISS:          0 MSHR_MERGE:          0
cpu0->cpu0_L1I LOAD         ACCESS:    7347832 HIT:    7347832 MISS:          0 MSHR_MERGE:          0
cpu0->cpu0_L1I RFO          ACCESS:          0 HIT:          0 MISS:          0 MSHR_MERGE:          0
cpu0->cpu0_L1I PREFETCH     ACCESS:          0 HIT:          0 MISS:          0 MSHR_MERGE:          0
cpu0->cpu0_L1I WRITE        ACCESS:          0 HIT:          0 MISS:          0 MSHR_MERGE:          0
cpu0->cpu0_L1I TRANSLATION  ACCESS:          0 HIT:          0 MISS:          0 MSHR_MERGE:          0
cpu0->cpu0_L1I PREFETCH REQUESTED:          0 ISSUED:          0 USEFUL:          0 USELESS:          0
cpu0->cpu0_L1I AVERAGE MISS LATENCY: - cycles
cpu0->cpu0_L1D TOTAL        ACCESS:    7097546 HIT:    4691309 MISS:    2406237 MSHR_MERGE:      36611
cpu0->cpu0_L1D LOAD         ACCESS:    2062899 HIT:    1693199 MISS:     369700 MSHR_MERGE:      13968
cpu0->cpu0_L1D RFO          ACCESS:          0 HIT:          0 MISS:          0 MSHR_MERGE:          0
cpu0->cpu0_L1D PREFETCH     ACCESS:          0 HIT:          0 MISS:          0 MSHR_MERGE:          0
cpu0->cpu0_L1D WRITE        ACCESS:    5023519 HIT:    2998110 MISS:    2025409 MSHR_MERGE:      22643
cpu0->cpu0_L1D TRANSLATION  ACCESS:      11128 HIT:          0 MISS:      11128 MSHR_MERGE:          0
cpu0->cpu0_L1D PREFETCH REQUESTED:          0 ISSUED:          0 USEFUL:          0 USELESS:          0
cpu0->cpu0_L1D AVERAGE MISS LATENCY: 213 cycles
cpu0->cpu0_ITLB TOTAL        ACCESS:    5708828 HIT:    5708828 MISS:          0 MSHR_MERGE:          0
cpu0->cpu0_ITLB LOAD         ACCESS:    5708828 HIT:    5708828 MISS:          0 MSHR_MERGE:          0
cpu0->cpu0_ITLB RFO          ACCESS:          0 HIT:          0 MISS:          0 MSHR_MERGE:          0
cpu0->cpu0_ITLB PREFETCH     ACCESS:          0 HIT:          0 MISS:          0 MSHR_MERGE:          0
cpu0->cpu0_ITLB WRITE        ACCESS:          0 HIT:          0 MISS:          0 MSHR_MERGE:          0
cpu0->cpu0_ITLB TRANSLATION  ACCESS:          0 HIT:          0 MISS:          0 MSHR_MERGE:          0
cpu0->cpu0_ITLB PREFETCH REQUESTED:          0 ISSUED:          0 USEFUL:          0 USELESS:          0
cpu0->cpu0_ITLB AVERAGE MISS LATENCY: - cycles
cpu0->cpu0_DTLB TOTAL        ACCESS:    6323194 HIT:    6305523 MISS:      17671 MSHR_MERGE:       6556
cpu0->cpu0_DTLB LOAD         ACCESS:    6323194 HIT:    6305523 MISS:      17671 MSHR_MERGE:       6556
cpu0->cpu0_DTLB RFO          ACCESS:          0 HIT:          0 MISS:          0 MSHR_MERGE:          0
cpu0->cpu0_DTLB PREFETCH     ACCESS:          0 HIT:          0 MISS:          0 MSHR_MERGE:          0
cpu0->cpu0_DTLB WRITE        ACCESS:          0 HIT:          0 MISS:          0 MSHR_MERGE:          0
cpu0->cpu0_DTLB TRANSLATION  ACCESS:          0 HIT:          0 MISS:          0 MSHR_MERGE:          0
cpu0->cpu0_DTLB PREFETCH REQUESTED:          0 ISSUED:          0 USEFUL:          0 USELESS:          0
cpu0->cpu0_DTLB AVERAGE MISS LATENCY: 455 cycles
cpu0->LLC TOTAL        ACCESS:    2518381 HIT:      66441 MISS:    2451940 MSHR_MERGE:          0
cpu0->LLC LOAD         ACCESS:     355732 HIT:          0 MISS:     355732 MSHR_MERGE:          0
cpu0->LLC RFO          ACCESS:    1076821 HIT:      19219 MISS:    1057602 MSHR_MERGE:          0
cpu0->LLC PREFETCH     ACCESS:          0 HIT:          0 MISS:          0 MSHR_MERGE:          0
cpu0->LLC WRITE        ACCESS:    1077144 HIT:      47222 MISS:    1029922 MSHR_MERGE:          0
cpu0->LLC TRANSLATION  ACCESS:       8684 HIT:          0 MISS:       8684 MSHR_MERGE:          0
cpu0->LLC PREFETCH REQUESTED:          0 ISSUED:          0 USEFUL:          0 USELESS:          0
cpu0->LLC AVERAGE MISS LATENCY: 191.1 cycles

DRAM Statistics

Channel 0 RQ ROW_BUFFER_HIT:       7628
  ROW_BUFFER_MISS:    1414317
  AVG DBUS CONGESTED CYCLE: 12.09
Channel 0 WQ ROW_BUFFER_HIT:     177607
  ROW_BUFFER_MISS:     877090
  FULL:          0
Channel 0 REFRESHES ISSUED:       6218
