[VMEM] WARNING: physical memory size is smaller than virtual memory size.
WARNING: option --warmup_instructions is deprecated. Use --warmup-instructions instead.
WARNING: option --simulation_instructions is deprecated. Use --simulation-instructions instead.

*** ChampSim Multicore Out-of-Order Simulator ***
Warmup Instructions: 20000000
Simulation Instructions: 50000000
Number of CPUs: 1
Page size: 65536

Off-chip DRAM Size: 16 GiB Channels: 1 Width: 64-bit Data Rate: 3205 MT/s
Heartbeat CPU 0 instructions: 10000000 cycles: 2784019 heartbeat IPC: 3.592 cumulative IPC: 3.592 (Simulation time: 00 hr 00 min 35 sec)
Heartbeat CPU 0 instructions: 20000000 cycles: 5559555 heartbeat IPC: 3.603 cumulative IPC: 3.597 (Simulation time: 00 hr 01 min 10 sec)
Warmup finished CPU 0 instructions: 20000000 cycles: 5559555 cumulative IPC: 3.597 (Simulation time: 00 hr 01 min 10 sec)
Warmup complete CPU 0 instructions: 20000000 cycles: 5559555 cumulative IPC: 3.597 (Simulation time: 00 hr 01 min 10 sec)
Heartbeat CPU 0 instructions: 30000002 cycles: 17299123 heartbeat IPC: 0.8518 cumulative IPC: 0.8518 (Simulation time: 00 hr 03 min 03 sec)
Heartbeat CPU 0 instructions: 40000004 cycles: 29066722 heartbeat IPC: 0.8498 cumulative IPC: 0.8508 (Simulation time: 00 hr 04 min 54 sec)
Heartbeat CPU 0 instructions: 50000004 cycles: 40840922 heartbeat IPC: 0.8493 cumulative IPC: 0.8503 (Simulation time: 00 hr 06 min 46 sec)
Heartbeat CPU 0 instructions: 60000006 cycles: 52561216 heartbeat IPC: 0.8532 cumulative IPC: 0.851 (Simulation time: 00 hr 08 min 37 sec)
Simulation finished CPU 0 instructions: 50000002 cycles: 58759052 cumulative IPC: 0.8509 (Simulation time: 00 hr 10 min 28 sec)
Simulation complete CPU 0 instructions: 50000002 cycles: 58759052 cumulative IPC: 0.8509 (Simulation time: 00 hr 10 min 28 sec)

ChampSim completed all CPUs

=== Simulation ===
CPU 0 runs traces/470.lbm-1274B.champsimtrace.xz

Region of Interest Statistics

CPU 0 cumulative IPC: 0.8509 instructions: 50000002 cycles: 58759052
CPU 0 Branch Prediction Accuracy: 99.79% MPKI: 0.02864 Average ROB Occupancy at Mispredict: 189.7
Branch type MPKI
BRANCH_DIRECT_JUMP: 0
BRANCH_INDIRECT: 0
BRANCH_CONDITIONAL: 0.02864
BRANCH_DIRECT_CALL: 0
BRANCH_INDIRECT_CALL: 0
BRANCH_RETURN: 0

cpu0->cpu0_STLB TOTAL        ACCESS:       1390 HIT:        695 MISS:        695 MSHR_MERGE:          0
cpu0->cpu0_STLB LOAD         ACCESS:       1390 HIT:        695 MISS:        695 MSHR_MERGE:          0
cpu0->cpu0_STLB RFO          ACCESS:          0 HIT:          0 MISS:          0 MSHR_MERGE:          0
cpu0->cpu0_STLB PREFETCH     ACCESS:          0 HIT:          0 MISS:          0 MSHR_MERGE:          0
cpu0->cpu0_STLB WRITE        ACCESS:          0 HIT:          0 MISS:          0 MSHR_MERGE:          0
cpu0->cpu0_STLB TRANSLATION  ACCESS:          0 HIT:          0 MISS:          0 MSHR_MERGE:          0
cpu0->cpu0_STLB PREFETCH REQUESTED:          0 ISSUED:          0 USEFUL:          0 USELESS:          0
cpu0->cpu0_STLB AVERAGE MISS LATENCY: 1383 cycles
cpu0->cpu0_L2C TOTAL        ACCESS:    4949645 HIT:    3461081 MISS:    1488564 MSHR_MERGE:      62477
cpu0->cpu0_L2C LOAD         ACCESS:     355730 HIT:     275539 MISS:      80191 MSHR_MERGE:      29147
cpu0->cpu0_L2C RFO          ACCESS:    2002639 HIT:     935578 MISS:    1067061 MSHR_MERGE:          0
cpu0->cpu0_L2C PREFETCH     ACCESS:     587184 HIT:     247278 MISS:     339906 MSHR_MERGE:      33330
cpu0->cpu0_L2C WRITE        ACCESS:    2002701 HIT:    2002686 MISS:         15 MSHR_MERGE:          0
cpu0->cpu0_L2C TRANSLATION  ACCESS:       1391 HIT:          0 MISS:       1391 MSHR_MERGE:          0
cpu0->cpu0_L2C PREFETCH REQUESTED:     587183 ISSUED:     587183 USEFUL:     304686 USELESS:       1908
cpu0->cpu0_L2C AVERAGE MISS LATENCY: 485.9 cycles
cpu0->cpu0_L1I TOTAL        ACCESS:    8567871 HIT:    8567871 MISS:          0 MSHR_MERGE:          0
cpu0->cpu0_L1I LOAD         ACCESS:    8567871 HIT:    8567871 MISS:          0 MSHR_MERGE:          0
cpu0->cpu0_L1I RFO          ACCESS:          0 HIT:          0 MISS:          0 MSHR_MERGE:          0
cpu0->cpu0_L1I PREFETCH     ACCESS:          0 HIT:          0 MISS:          0 MSHR_MERGE:          0
cpu0->cpu0_L1I WRITE        ACCESS:          0 HIT:          0 MISS:          0 MSHR_MERGE:          0
cpu0->cpu0_L1I TRANSLATION  ACCESS:          0 HIT:          0 MISS:          0 MSHR_MERGE:          0
cpu0->cpu0_L1I PREFETCH REQUESTED:          0 ISSUED:          0 USEFUL:          0 USELESS:          0
cpu0->cpu0_L1I AVERAGE MISS LATENCY: - cycles
cpu0->cpu0_L1D TOTAL        ACCESS:    7231495 HIT:    4798138 MISS:    2433357 MSHR_MERGE:      73530
cpu0->cpu0_L1D LOAD         ACCESS:    2206585 HIT:    1832090 MISS:     374495 MSHR_MERGE:      18765
cpu0->cpu0_L1D RFO          ACCESS:          0 HIT:          0 MISS:          0 MSHR_MERGE:          0
cpu0->cpu0_L1D PREFETCH     ACCESS:          0 HIT:          0 MISS:          0 MSHR_MERGE:          0
cpu0->cpu0_L1D WRITE        ACCESS:    5023519 HIT:    2966048 MISS:    2057471 MSHR_MERGE:      54765
cpu0->cpu0_L1D TRANSLATION  ACCESS:       1391 HIT:          0 MISS:       1391 MSHR_MERGE:          0
cpu0->cpu0_L1D PREFETCH REQUESTED:          0 ISSUED:          0 USEFUL:          0 USELESS:          0
cpu0->cpu0_L1D AVERAGE MISS LATENCY: 269.9 cycles
cpu0->cpu0_ITLB TOTAL        ACCESS:    7059949 HIT:    7059949 MISS:          0 MSHR_MERGE:          0
cpu0->cpu0_ITLB LOAD         ACCESS:    7059949 HIT:    7059949 MISS:          0 MSHR_MERGE:          0
cpu0->cpu0_ITLB RFO          ACCESS:          0 HIT:          0 MISS:          0 MSHR_MERGE:          0
cpu0->cpu0_ITLB PREFETCH     ACCESS:          0 HIT:          0 MISS:          0 MSHR_MERGE:          0
cpu0->cpu0_ITLB WRITE        ACCESS:          0 HIT:          0 MISS:          0 MSHR_MERGE:          0
cpu0->cpu0_ITLB TRANSLATION  ACCESS:          0 HIT:          0 MISS:          0 MSHR_MERGE:          0
cpu0->cpu0_ITLB PREFETCH REQUESTED:          0 ISSUED:          0 USEFUL:          0 USELESS:          0
cpu0->cpu0_ITLB AVERAGE MISS LATENCY: - cycles
cpu0->cpu0_DTLB TOTAL        ACCESS:    6724387 HIT:    6721372 MISS:       3015 MSHR_MERGE:       1625
cpu0->cpu0_DTLB LOAD         ACCESS:    6724387 HIT:    6721372 MISS:       3015 MSHR_MERGE:       1625
cpu0->cpu0_DTLB RFO          ACCESS:          0 HIT:          0 MISS:          0 MSHR_MERGE:          0
cpu0->cpu0_DTLB PREFETCH     ACCESS:          0 HIT:          0 MISS:          0 MSHR_MERGE:          0
cpu0->cpu0_DTLB WRITE        ACCESS:          0 HIT:          0 MISS:          0 MSHR_MERGE:          0
cpu0->cpu0_DTLB TRANSLATION  ACCESS:          0 HIT:          0 MISS:          0 MSHR_MERGE:          0
cpu0->cpu0_DTLB PREFETCH REQUESTED:          0 ISSUED:          0 USEFUL:          0 USELESS:          0
cpu0->cpu0_DTLB AVERAGE MISS LATENCY: 696.2 cycles
cpu0->LLC TOTAL        ACCESS:    2493115 HIT:      12256 MISS:    2480859 MSHR_MERGE:          0
cpu0->LLC LOAD         ACCESS:      51044 HIT:          0 MISS:      51044 MSHR_MERGE:          0
cpu0->LLC RFO          ACCESS:    1067061 HIT:          0 MISS:    1067061 MSHR_MERGE:          0
cpu0->LLC PREFETCH     ACCESS:     306574 HIT:          0 MISS:     306574 MSHR_MERGE:          0
cpu0->LLC WRITE        ACCESS:    1067045 HIT:      12244 MISS:    1054801 MSHR_MERGE:          0
cpu0->LLC TRANSLATION  ACCESS:       1391 HIT:         12 MISS:       1379 MSHR_MERGE:          0
cpu0->LLC PREFETCH REQUESTED:          0 ISSUED:          0 USEFUL:          0 USELESS:          0
cpu0->LLC AVERAGE MISS LATENCY: 248.8 cycles

DRAM Statistics

Channel 0 RQ ROW_BUFFER_HIT:      61553
  ROW_BUFFER_MISS:    1364494
  AVG DBUS CONGESTED CYCLE: 12.68
Channel 0 WQ ROW_BUFFER_HIT:     168950
  ROW_BUFFER_MISS:     898045
  FULL:          0
Channel 0 REFRESHES ISSUED:       4896
