[VMEM] WARNING: physical memory size is smaller than virtual memory size.
WARNING: option --warmup_instructions is deprecated. Use --warmup-instructions instead.
WARNING: option --simulation_instructions is deprecated. Use --simulation-instructions instead.

*** ChampSim Multicore Out-of-Order Simulator ***
Warmup Instructions: 20000000
Simulation Instructions: 50000000
Number of CPUs: 1
Page size: 65536

Off-chip DRAM Size: 16 GiB Channels: 1 Width: 64-bit Data Rate: 3205 MT/s
Heartbeat CPU 0 instructions: 10000001 cycles: 6298551 heartbeat IPC: 1.588 cumulative IPC: 1.588 (Simulation time: 00 hr 01 min 08 sec)
Warmup finished CPU 0 instructions: 20000000 cycles: 11941894 cumulative IPC: 1.675 (Simulation time: 00 hr 02 min 11 sec)
Warmup complete CPU 0 instructions: 20000000 cycles: 11941894 cumulative IPC: 1.675 (Simulation time: 00 hr 02 min 11 sec)
Heartbeat CPU 0 instructions: 20000004 cycles: 11941895 heartbeat IPC: 1.772 cumulative IPC: 4 (Simulation time: 00 hr 02 min 11 sec)
Heartbeat CPU 0 instructions: 30000006 cycles: 32598313 heartbeat IPC: 0.4841 cumulative IPC: 0.4841 (Simulation time: 00 hr 04 min 19 sec)
Heartbeat CPU 0 instructions: 40000008 cycles: 53481405 heartbeat IPC: 0.4789 cumulative IPC: 0.4815 (Simulation time: 00 hr 06 min 29 sec)
Heartbeat CPU 0 instructions: 50000008 cycles: 74178289 heartbeat IPC: 0.4832 cumulative IPC: 0.482 (Simulation time: 00 hr 08 min 37 sec)
Heartbeat CPU 0 instructions: 60000011 cycles: 94065118 heartbeat IPC: 0.5028 cumulative IPC: 0.4871 (Simulation time: 00 hr 10 min 32 sec)
Simulation finished CPU 0 instructions: 50000001 cycles: 101683498 cumulative IPC: 0.4917 (Simulation time: 00 hr 12 min 24 sec)
Simulation complete CPU 0 instructions: 50000001 cycles: 101683498 cumulative IPC: 0.4917 (Simulation time: 00 hr 12 min 24 sec)

ChampSim completed all CPUs

=== Simulation ===
CPU 0 runs traces/620.omnetpp_s-874B.champsimtrace.xz

Region of Interest Statistics

CPU 0 cumulative IPC: 0.4917 instructions: 50000001 cycles: 101683498
CPU 0 Branch Prediction Accuracy: 96.16% MPKI: 7.99 Average ROB Occupancy at Mispredict: 58.94
Branch type MPKI
BRANCH_DIRECT_JUMP: 0.9384
BRANCH_INDIRECT: 0.1208
BRANCH_CONDITIONAL: 5.805
BRANCH_DIRECT_CALL: 0.00236
BRANCH_INDIRECT_CALL: 0.7298
BRANCH_RETURN: 0.3936

cpu0->cpu0_STLB TOTAL        ACCESS:     367999 HIT:     363925 MISS:       4074 MSHR_MERGE:          0
cpu0->cpu0_STLB LOAD         ACCESS:     367999 HIT:     363925 MISS:       4074 MSHR_MERGE:          0
cpu0->cpu0_STLB RFO          ACCESS:          0 HIT:          0 MISS:          0 MSHR_MERGE:          0
cpu0->cpu0_STLB PREFETCH     ACCESS:          0 HIT:          0 MISS:          0 MSHR_MERGE:          0
cpu0->cpu0_STLB WRITE        ACCESS:          0 HIT:          0 MISS:          0 MSHR_MERGE:          0
cpu0->cpu0_STLB TRANSLATION  ACCESS:          0 HIT:          0 MISS:          0 MSHR_MERGE:          0
cpu0->cpu0_STLB PREFETCH REQUESTED:          0 ISSUED:          0 USEFUL:          0 USELESS:          0
cpu0->cpu0_STLB AVERAGE MISS LATENCY: 348.2 cycles
cpu0->cpu0_L2C TOTAL        ACCESS:    1635602 HIT:     827952 MISS:     807650 MSHR_MERGE:       3145
cpu0->cpu0_L2C LOAD         ACCESS:     889899 HIT:     274790 MISS:     615109 MSHR_MERGE:         52
cpu0->cpu0_L2C RFO          ACCESS:     135955 HIT:      31632 MISS:     104323 MSHR_MERGE:          1
cpu0->cpu0_L2C PREFETCH     ACCESS:     111839 HIT:      33174 MISS:      78665 MSHR_MERGE:       3092
cpu0->cpu0_L2C WRITE        ACCESS:     489825 HIT:     488310 MISS:       1515 MSHR_MERGE:          0
cpu0->cpu0_L2C TRANSLATION  ACCESS:       8084 HIT:         46 MISS:       8038 MSHR_MERGE:          0
cpu0->cpu0_L2C PREFETCH REQUESTED:     111839 ISSUED:     111839 USEFUL:      16342 USELESS:      59101
cpu0->cpu0_L2C AVERAGE MISS LATENCY: 137.3 cycles
cpu0->cpu0_L1I TOTAL        ACCESS:    8008021 HIT:    7982709 MISS:      25312 MSHR_MERGE:       6781
cpu0->cpu0_L1I LOAD         ACCESS:    8008021 HIT:    7982709 MISS:      25312 MSHR_MERGE:       6781
cpu0->cpu0_L1I RFO          ACCESS:          0 HIT:          0 MISS:          0 MSHR_MERGE:          0
cpu0->cpu0_L1I PREFETCH     ACCESS:          0 HIT:          0 MISS:          0 MSHR_MERGE:          0
cpu0->cpu0_L1I WRITE        ACCESS:          0 HIT:          0 MISS:          0 MSHR_MERGE:          0
cpu0->cpu0_L1I TRANSLATION  ACCESS:          0 HIT:          0 MISS:          0 MSHR_MERGE:          0
cpu0->cpu0_L1I PREFETCH REQUESTED:          0 ISSUED:          0 USEFUL:          0 USELESS:          0
cpu0->cpu0_L1I AVERAGE MISS LATENCY: 25.51 cycles
cpu0->cpu0_L1D TOTAL        ACCESS:   18454308 HIT:   16990760 MISS:    1463548 MSHR_MERGE:     448135
cpu0->cpu0_L1D LOAD         ACCESS:    9414732 HIT:    8334339 MISS:    1080393 MSHR_MERGE:     209023
cpu0->cpu0_L1D RFO          ACCESS:          0 HIT:          0 MISS:          0 MSHR_MERGE:          0
cpu0->cpu0_L1D PREFETCH     ACCESS:          0 HIT:          0 MISS:          0 MSHR_MERGE:          0
cpu0->cpu0_L1D WRITE        ACCESS:    9031428 HIT:    8656358 MISS:     375070 MSHR_MERGE:     239111
cpu0->cpu0_L1D TRANSLATION  ACCESS:       8148 HIT:         63 MISS:       8085 MSHR_MERGE:          1
cpu0->cpu0_L1D PREFETCH REQUESTED:          0 ISSUED:          0 USEFUL:          0 USELESS:          0
cpu0->cpu0_L1D AVERAGE MISS LATENCY: 107 cycles
cpu0->cpu0_ITLB TOTAL        ACCESS:    7264224 HIT:    7264217 MISS:          7 MSHR_MERGE:          3
cpu0->cpu0_ITLB LOAD         ACCESS:    7264224 HIT:    7264217 MISS:          7 MSHR_MERGE:          3
cpu0->cpu0_ITLB RFO          ACCESS:          0 HIT:          0 MISS:          0 MSHR_MERGE:          0
cpu0->cpu0_ITLB PREFETCH     ACCESS:          0 HIT:          0 MISS:          0 MSHR_MERGE:          0
cpu0->cpu0_ITLB WRITE        ACCESS:          0 HIT:          0 MISS:          0 MSHR_MERGE:          0
cpu0->cpu0_ITLB TRANSLATION  ACCESS:          0 HIT:          0 MISS:          0 MSHR_MERGE:          0
cpu0->cpu0_ITLB PREFETCH REQUESTED:          0 ISSUED:          0 USEFUL:          0 USELESS:          0
cpu0->cpu0_ITLB AVERAGE MISS LATENCY: 732.5 cycles
cpu0->cpu0_DTLB TOTAL        ACCESS:   17137077 HIT:   16724069 MISS:     413008 MSHR_MERGE:      45013
cpu0->cpu0_DTLB LOAD         ACCESS:   17137077 HIT:   16724069 MISS:     413008 MSHR_MERGE:      45013
cpu0->cpu0_DTLB RFO          ACCESS:          0 HIT:          0 MISS:          0 MSHR_MERGE:          0
cpu0->cpu0_DTLB PREFETCH     ACCESS:          0 HIT:          0 MISS:          0 MSHR_MERGE:          0
cpu0->cpu0_DTLB WRITE        ACCESS:          0 HIT:          0 MISS:          0 MSHR_MERGE:          0
cpu0->cpu0_DTLB TRANSLATION  ACCESS:          0 HIT:          0 MISS:          0 MSHR_MERGE:          0
cpu0->cpu0_DTLB PREFETCH REQUESTED:          0 ISSUED:          0 USEFUL:          0 USELESS:          0
cpu0->cpu0_DTLB AVERAGE MISS LATENCY: 7.858 cycles
cpu0->LLC TOTAL        ACCESS:    1170442 HIT:     270844 MISS:     899598 MSHR_MERGE:          0
cpu0->LLC LOAD         ACCESS:     615057 HIT:     123676 MISS:     491381 MSHR_MERGE:          0
cpu0->LLC RFO          ACCESS:     104321 HIT:      24042 MISS:      80279 MSHR_MERGE:          0
cpu0->LLC PREFETCH     ACCESS:      75573 HIT:       2373 MISS:      73200 MSHR_MERGE:          0
cpu0->LLC WRITE        ACCESS:     367453 HIT:     119890 MISS:     247563 MSHR_MERGE:          0
cpu0->LLC TRANSLATION  ACCESS:       8038 HIT:        863 MISS:       7175 MSHR_MERGE:          0
cpu0->LLC PREFETCH REQUESTED:          0 ISSUED:          0 USEFUL:          0 USELESS:          0
cpu0->LLC AVERAGE MISS LATENCY: 109 cycles

DRAM Statistics

Channel 0 RQ ROW_BUFFER_HIT:      37229
  ROW_BUFFER_MISS:     614769
  AVG DBUS CONGESTED CYCLE: 23.79
Channel 0 WQ ROW_BUFFER_HIT:      65454
  ROW_BUFFER_MISS:     201675
  FULL:          0
Channel 0 REFRESHES ISSUED:       8473
