[VMEM] WARNING: physical memory size is smaller than virtual memory size.
WARNING: option --warmup_instructions is deprecated. Use --warmup-instructions instead.
WARNING: option --simulation_instructions is deprecated. Use --simulation-instructions instead.

*** ChampSim Multicore Out-of-Order Simulator ***
Warmup Instructions: 20000000
Simulation Instructions: 50000000
Number of CPUs: 1
Page size: 8192

Off-chip DRAM Size: 16 GiB Channels: 1 Width: 64-bit Data Rate: 3205 MT/s
Heartbeat CPU 0 instructions: 10000003 cycles: 4567562 heartbeat IPC: 2.189 cumulative IPC: 2.189 (Simulation time: 00 hr 00 min 50 sec)
Warmup finished CPU 0 instructions: 20000000 cycles: 9081720 cumulative IPC: 2.202 (Simulation time: 00 hr 01 min 40 sec)
Warmup complete CPU 0 instructions: 20000000 cycles: 9081720 cumulative IPC: 2.202 (Simulation time: 00 hr 01 min 40 sec)
Heartbeat CPU 0 instructions: 20000006 cycles: 9081721 heartbeat IPC: 2.215 cumulative IPC: 6 (Simulation time: 00 hr 01 min 40 sec)
Heartbeat CPU 0 instructions: 30000009 cycles: 49126083 heartbeat IPC: 0.2497 cumulative IPC: 0.2497 (Simulation time: 00 hr 04 min 44 sec)
Heartbeat CPU 0 instructions: 40000013 cycles: 88823935 heartbeat IPC: 0.2519 cumulative IPC: 0.2508 (Simulation time: 00 hr 07 min 46 sec)
Heartbeat CPU 0 instructions: 50000016 cycles: 128863998 heartbeat IPC: 0.2497 cumulative IPC: 0.2505 (Simulation time: 00 hr 10 min 50 sec)
Heartbeat CPU 0 instructions: 60000017 cycles: 168519946 heartbeat IPC: 0.2522 cumulative IPC: 0.2509 (Simulation time: 00 hr 13 min 55 sec)
Simulation finished CPU 0 instructions: 50000001 cycles: 199643155 cumulative IPC: 0.2504 (Simulation time: 00 hr 17 min 00 sec)
Simulation complete CPU 0 instructions: 50000001 cycles: 199643155 cumulative IPC: 0.2504 (Simulation time: 00 hr 17 min 00 sec)

ChampSim completed all CPUs

=== Simulation ===
CPU 0 runs traces/605.mcf_s-1152B.champsimtrace.xz

Region of Interest Statistics

CPU 0 cumulative IPC: 0.2504 instructions: 50000001 cycles: 199643155
CPU 0 Branch Prediction Accuracy: 90.19% MPKI: 24.48 Average ROB Occupancy at Mispredict: 18.83
Branch type MPKI
BRANCH_DIRECT_JUMP: 0.2057
BRANCH_INDIRECT: 0
BRANCH_CONDITIONAL: 24.27
BRANCH_DIRECT_CALL: 0
BRANCH_INDIRECT_CALL: 0.0036
BRANCH_RETURN: 2e-05

cpu0->cpu0_STLB TOTAL        ACCESS:    1006098 HIT:    1000341 MISS:       5757 MSHR_MERGE:          0
cpu0->cpu0_STLB LOAD         ACCESS:    1006098 HIT:    1000341 MISS:       5757 MSHR_MERGE:          0
cpu0->cpu0_STLB RFO          ACCESS:          0 HIT:          0 MISS:          0 MSHR_MERGE:          0
cpu0->cpu0_STLB PREFETCH     ACCESS:          0 HIT:          0 MISS:          0 MSHR_MERGE:          0
cpu0->cpu0_STLB WRITE        ACCESS:          0 HIT:          0 MISS:          0 MSHR_MERGE:          0
cpu0->cpu0_STLB TRANSLATION  ACCESS:          0 HIT:          0 MISS:          0 MSHR_MERGE:          0
cpu0->cpu0_STLB PREFETCH REQUESTED:          0 ISSUED:          0 USEFUL:          0 USELESS:          0
cpu0->cpu0_STLB AVERAGE MISS LATENCY: 611 cycles
cpu0->cpu0_L2C TOTAL        ACCESS:    3014335 HIT:     738221 MISS:    2276114 MSHR_MERGE:          0
cpu0->cpu0_L2C LOAD         ACCESS:    2552720 HIT:     417547 MISS:    2135173 MSHR_MERGE:          0
cpu0->cpu0_L2C RFO          ACCESS:     187428 HIT:      53617 MISS:     133811 MSHR_MERGE:          0
cpu0->cpu0_L2C PREFETCH     ACCESS:          0 HIT:          0 MISS:          0 MSHR_MERGE:          0
cpu0->cpu0_L2C WRITE        ACCESS:     265841 HIT:     265511 MISS:        330 MSHR_MERGE:          0
cpu0->cpu0_L2C TRANSLATION  ACCESS:       8346 HIT:       1546 MISS:       6800 MSHR_MERGE:          0
cpu0->cpu0_L2C PREFETCH REQUESTED:          0 ISSUED:          0 USEFUL:          0 USELESS:          0
cpu0->cpu0_L2C AVERAGE MISS LATENCY: 71.71 cycles
cpu0->cpu0_L1I TOTAL        ACCESS:     418133 HIT:     418133 MISS:          0 MSHR_MERGE:          0
cpu0->cpu0_L1I LOAD         ACCESS:     418133 HIT:     418133 MISS:          0 MSHR_MERGE:          0
cpu0->cpu0_L1I RFO          ACCESS:          0 HIT:          0 MISS:          0 MSHR_MERGE:          0
cpu0->cpu0_L1I PREFETCH     ACCESS:          0 HIT:          0 MISS:          0 MSHR_MERGE:          0
cpu0->cpu0_L1I WRITE        ACCESS:          0 HIT:          0 MISS:          0 MSHR_MERGE:          0
cpu0->cpu0_L1I TRANSLATION  ACCESS:          0 HIT:          0 MISS:          0 MSHR_MERGE:          0
cpu0->cpu0_L1I PREFETCH REQUESTED:          0 ISSUED:          0 USEFUL:          0 USELESS:          0
cpu0->cpu0_L1I AVERAGE MISS LATENCY: - cycles
cpu0->cpu0_L1D TOTAL        ACCESS:   17674789 HIT:   14004461 MISS:    3670328 MSHR_MERGE:     921829
cpu0->cpu0_L1D LOAD         ACCESS:   12516481 HIT:    9352897 MISS:    3163584 MSHR_MERGE:     610863
cpu0->cpu0_L1D RFO          ACCESS:          0 HIT:          0 MISS:          0 MSHR_MERGE:          0
cpu0->cpu0_L1D PREFETCH     ACCESS:          0 HIT:          0 MISS:          0 MSHR_MERGE:          0
cpu0->cpu0_L1D WRITE        ACCESS:    5146698 HIT:    4648300 MISS:     498398 MSHR_MERGE:     310966
cpu0->cpu0_L1D TRANSLATION  ACCESS:      11610 HIT:       3264 MISS:       8346 MSHR_MERGE:          0
cpu0->cpu0_L1D PREFETCH REQUESTED:          0 ISSUED:          0 USEFUL:          0 USELESS:          0
cpu0->cpu0_L1D AVERAGE MISS LATENCY: 68.21 cycles
cpu0->cpu0_ITLB TOTAL        ACCESS:     384487 HIT:     384487 MISS:          0 MSHR_MERGE:          0
cpu0->cpu0_ITLB LOAD         ACCESS:     384487 HIT:     384487 MISS:          0 MSHR_MERGE:          0
cpu0->cpu0_ITLB RFO          ACCESS:          0 HIT:          0 MISS:          0 MSHR_MERGE:          0
cpu0->cpu0_ITLB PREFETCH     ACCESS:          0 HIT:          0 MISS:          0 MSHR_MERGE:          0
cpu0->cpu0_ITLB WRITE        ACCESS:          0 HIT:          0 MISS:          0 MSHR_MERGE:          0
cpu0->cpu0_ITLB TRANSLATION  ACCESS:          0 HIT:          0 MISS:          0 MSHR_MERGE:          0
cpu0->cpu0_ITLB PREFETCH REQUESTED:          0 ISSUED:          0 USEFUL:          0 USELESS:          0
cpu0->cpu0_ITLB AVERAGE MISS LATENCY: - cycles
cpu0->cpu0_DTLB TOTAL        ACCESS:   16474760 HIT:   15284837 MISS:    1189923 MSHR_MERGE:     183825
cpu0->cpu0_DTLB LOAD         ACCESS:   16474760 HIT:   15284837 MISS:    1189923 MSHR_MERGE:     183825
cpu0->cpu0_DTLB RFO          ACCESS:          0 HIT:          0 MISS:          0 MSHR_MERGE:          0
cpu0->cpu0_DTLB PREFETCH     ACCESS:          0 HIT:          0 MISS:          0 MSHR_MERGE:          0
cpu0->cpu0_DTLB WRITE        ACCESS:          0 HIT:          0 MISS:          0 MSHR_MERGE:          0
cpu0->cpu0_DTLB TRANSLATION  ACCESS:          0 HIT:          0 MISS:          0 MSHR_MERGE:          0
cpu0->cpu0_DTLB PREFETCH REQUESTED:          0 ISSUED:          0 USEFUL:          0 USELESS:          0
cpu0->cpu0_DTLB AVERAGE MISS LATENCY: 7.502 cycles
cpu0->LLC TOTAL        ACCESS:    2478537 HIT:    1454334 MISS:    1024203 MSHR_MERGE:          0
cpu0->LLC LOAD         ACCESS:    2135173 HIT:    1123582 MISS:    1011591 MSHR_MERGE:          0
cpu0->LLC RFO          ACCESS:     133811 HIT:     132023 MISS:       1788 MSHR_MERGE:          0
cpu0->LLC PREFETCH     ACCESS:          0 HIT:          0 MISS:          0 MSHR_MERGE:          0
cpu0->LLC WRITE        ACCESS:     202753 HIT:     198721 MISS:       4032 MSHR_MERGE:          0
cpu0->LLC TRANSLATION  ACCESS:       6800 HIT:          8 MISS:       6792 MSHR_MERGE:          0
cpu0->LLC PREFETCH REQUESTED:          0 ISSUED:          0 USEFUL:          0 USELESS:          0
cpu0->LLC AVERAGE MISS LATENCY: 122.8 cycles

DRAM Statistics

Channel 0 RQ ROW_BUFFER_HIT:     188576
  ROW_BUFFER_MISS:     831585
  AVG DBUS CONGESTED CYCLE: 23.25
Channel 0 WQ ROW_BUFFER_HIT:        378
  ROW_BUFFER_MISS:       6085
  FULL:          0
Channel 0 REFRESHES ISSUED:      16637
