[VMEM] WARNING: physical memory size is smaller than virtual memory size.

*** ChampSim Multicore Out-of-Order Simulator ***
Warmup Instructions: 100000000
Simulation Instructions: 500000000
Number of CPUs: 1
Page size: 4096

Off-chip DRAM Size: 16 GiB Channels: 1 Width: 64-bit Data Rate: 3205 MT/s
Heartbeat CPU 0 instructions: 10000002 cycles: 3193344 heartbeat IPC: 3.132 cumulative IPC: 3.132 (Simulation time: 00 hr 01 min 12 sec)
Heartbeat CPU 0 instructions: 20000002 cycles: 6302289 heartbeat IPC: 3.217 cumulative IPC: 3.173 (Simulation time: 00 hr 02 min 21 sec)
Heartbeat CPU 0 instructions: 30000006 cycles: 9391913 heartbeat IPC: 3.237 cumulative IPC: 3.194 (Simulation time: 00 hr 03 min 30 sec)
Heartbeat CPU 0 instructions: 40000007 cycles: 12494983 heartbeat IPC: 3.223 cumulative IPC: 3.201 (Simulation time: 00 hr 04 min 45 sec)
Heartbeat CPU 0 instructions: 50000010 cycles: 15572003 heartbeat IPC: 3.25 cumulative IPC: 3.211 (Simulation time: 00 hr 05 min 59 sec)
Heartbeat CPU 0 instructions: 60000010 cycles: 18679566 heartbeat IPC: 3.218 cumulative IPC: 3.212 (Simulation time: 00 hr 07 min 15 sec)
Heartbeat CPU 0 instructions: 70000013 cycles: 21764916 heartbeat IPC: 3.241 cumulative IPC: 3.216 (Simulation time: 00 hr 08 min 27 sec)
Heartbeat CPU 0 instructions: 80000017 cycles: 24867004 heartbeat IPC: 3.224 cumulative IPC: 3.217 (Simulation time: 00 hr 09 min 38 sec)
Heartbeat CPU 0 instructions: 90000019 cycles: 27950190 heartbeat IPC: 3.243 cumulative IPC: 3.22 (Simulation time: 00 hr 10 min 49 sec)
Warmup finished CPU 0 instructions: 100000004 cycles: 30940953 cumulative IPC: 3.232 (Simulation time: 00 hr 11 min 56 sec)
Warmup complete CPU 0 instructions: 100000004 cycles: 30940953 cumulative IPC: 3.232 (Simulation time: 00 hr 11 min 56 sec)
Heartbeat CPU 0 instructions: 100000019 cycles: 30940956 heartbeat IPC: 3.344 cumulative IPC: 5 (Simulation time: 00 hr 11 min 56 sec)
Heartbeat CPU 0 instructions: 110000019 cycles: 58575334 heartbeat IPC: 0.3619 cumulative IPC: 0.3619 (Simulation time: 00 hr 16 min 03 sec)
Heartbeat CPU 0 instructions: 120000019 cycles: 85834930 heartbeat IPC: 0.3668 cumulative IPC: 0.3643 (Simulation time: 00 hr 20 min 05 sec)
Heartbeat CPU 0 instructions: 130000019 cycles: 112827090 heartbeat IPC: 0.3705 cumulative IPC: 0.3664 (Simulation time: 00 hr 24 min 04 sec)
Heartbeat CPU 0 instructions: 140000020 cycles: 140601999 heartbeat IPC: 0.36 cumulative IPC: 0.3648 (Simulation time: 00 hr 28 min 09 sec)
Heartbeat CPU 0 instructions: 150000022 cycles: 167808659 heartbeat IPC: 0.3676 cumulative IPC: 0.3653 (Simulation time: 00 hr 32 min 09 sec)
Heartbeat CPU 0 instructions: 160000023 cycles: 194323812 heartbeat IPC: 0.3771 cumulative IPC: 0.3672 (Simulation time: 00 hr 36 min 12 sec)
Heartbeat CPU 0 instructions: 170000025 cycles: 222088111 heartbeat IPC: 0.3602 cumulative IPC: 0.3662 (Simulation time: 00 hr 40 min 14 sec)
Heartbeat CPU 0 instructions: 180000026 cycles: 248626779 heartbeat IPC: 0.3768 cumulative IPC: 0.3675 (Simulation time: 00 hr 44 min 08 sec)
Heartbeat CPU 0 instructions: 190000026 cycles: 276069503 heartbeat IPC: 0.3644 cumulative IPC: 0.3672 (Simulation time: 00 hr 48 min 10 sec)
Heartbeat CPU 0 instructions: 200000028 cycles: 303666600 heartbeat IPC: 0.3624 cumulative IPC: 0.3667 (Simulation time: 00 hr 52 min 10 sec)
Heartbeat CPU 0 instructions: 210000030 cycles: 331189323 heartbeat IPC: 0.3633 cumulative IPC: 0.3664 (Simulation time: 00 hr 56 min 11 sec)
Heartbeat CPU 0 instructions: 220000030 cycles: 357537179 heartbeat IPC: 0.3795 cumulative IPC: 0.3674 (Simulation time: 01 hr 00 min 05 sec)
Heartbeat CPU 0 instructions: 230000030 cycles: 385737579 heartbeat IPC: 0.3546 cumulative IPC: 0.3664 (Simulation time: 01 hr 04 min 18 sec)
Heartbeat CPU 0 instructions: 240000033 cycles: 411020347 heartbeat IPC: 0.3955 cumulative IPC: 0.3683 (Simulation time: 01 hr 07 min 57 sec)
Heartbeat CPU 0 instructions: 250000036 cycles: 437176524 heartbeat IPC: 0.3823 cumulative IPC: 0.3692 (Simulation time: 01 hr 11 min 43 sec)
Heartbeat CPU 0 instructions: 260000036 cycles: 463451346 heartbeat IPC: 0.3806 cumulative IPC: 0.3699 (Simulation time: 01 hr 15 min 32 sec)
Heartbeat CPU 0 instructions: 270000040 cycles: 489768914 heartbeat IPC: 0.38 cumulative IPC: 0.3705 (Simulation time: 01 hr 19 min 20 sec)
Heartbeat CPU 0 instructions: 280000040 cycles: 516008725 heartbeat IPC: 0.3811 cumulative IPC: 0.3711 (Simulation time: 01 hr 23 min 08 sec)
Heartbeat CPU 0 instructions: 290000040 cycles: 541082488 heartbeat IPC: 0.3988 cumulative IPC: 0.3724 (Simulation time: 01 hr 26 min 48 sec)
Heartbeat CPU 0 instructions: 300000043 cycles: 566418693 heartbeat IPC: 0.3947 cumulative IPC: 0.3735 (Simulation time: 01 hr 30 min 42 sec)
Heartbeat CPU 0 instructions: 310000044 cycles: 589480866 heartbeat IPC: 0.4336 cumulative IPC: 0.376 (Simulation time: 01 hr 34 min 10 sec)
Heartbeat CPU 0 instructions: 320000045 cycles: 614280323 heartbeat IPC: 0.4032 cumulative IPC: 0.3771 (Simulation time: 01 hr 38 min 00 sec)
Heartbeat CPU 0 instructions: 330000045 cycles: 638700073 heartbeat IPC: 0.4095 cumulative IPC: 0.3784 (Simulation time: 01 hr 41 min 36 sec)
Heartbeat CPU 0 instructions: 340000048 cycles: 662954607 heartbeat IPC: 0.4123 cumulative IPC: 0.3797 (Simulation time: 01 hr 45 min 12 sec)
Heartbeat CPU 0 instructions: 350000048 cycles: 687439403 heartbeat IPC: 0.4084 cumulative IPC: 0.3808 (Simulation time: 01 hr 48 min 49 sec)
Heartbeat CPU 0 instructions: 360000049 cycles: 711363520 heartbeat IPC: 0.418 cumulative IPC: 0.3821 (Simulation time: 01 hr 52 min 22 sec)
Heartbeat CPU 0 instructions: 370000052 cycles: 735110052 heartbeat IPC: 0.4211 cumulative IPC: 0.3834 (Simulation time: 01 hr 55 min 53 sec)
Heartbeat CPU 0 instructions: 380000052 cycles: 759543393 heartbeat IPC: 0.4093 cumulative IPC: 0.3843 (Simulation time: 01 hr 59 min 28 sec)
Heartbeat CPU 0 instructions: 390000053 cycles: 783886303 heartbeat IPC: 0.4108 cumulative IPC: 0.3852 (Simulation time: 02 hr 02 min 53 sec)
Heartbeat CPU 0 instructions: 400000054 cycles: 808308183 heartbeat IPC: 0.4095 cumulative IPC: 0.3859 (Simulation time: 02 hr 06 min 06 sec)
Heartbeat CPU 0 instructions: 410000056 cycles: 832778526 heartbeat IPC: 0.4087 cumulative IPC: 0.3866 (Simulation time: 02 hr 09 min 18 sec)
Heartbeat CPU 0 instructions: 420000059 cycles: 857058845 heartbeat IPC: 0.4119 cumulative IPC: 0.3874 (Simulation time: 02 hr 12 min 29 sec)
Heartbeat CPU 0 instructions: 430000060 cycles: 881524482 heartbeat IPC: 0.4087 cumulative IPC: 0.388 (Simulation time: 02 hr 15 min 40 sec)
Heartbeat CPU 0 instructions: 440000061 cycles: 905846331 heartbeat IPC: 0.4112 cumulative IPC: 0.3886 (Simulation time: 02 hr 18 min 51 sec)
Heartbeat CPU 0 instructions: 450000065 cycles: 930875775 heartbeat IPC: 0.3995 cumulative IPC: 0.3889 (Simulation time: 02 hr 21 min 44 sec)
Heartbeat CPU 0 instructions: 460000065 cycles: 956379950 heartbeat IPC: 0.3921 cumulative IPC: 0.389 (Simulation time: 02 hr 24 min 32 sec)
Heartbeat CPU 0 instructions: 470000066 cycles: 983383041 heartbeat IPC: 0.3703 cumulative IPC: 0.3885 (Simulation time: 02 hr 27 min 28 sec)
Heartbeat CPU 0 instructions: 480000070 cycles: 1009543508 heartbeat IPC: 0.3823 cumulative IPC: 0.3883 (Simulation time: 02 hr 30 min 21 sec)
Heartbeat CPU 0 instructions: 490000070 cycles: 1035722582 heartbeat IPC: 0.382 cumulative IPC: 0.3881 (Simulation time: 02 hr 33 min 21 sec)
Heartbeat CPU 0 instructions: 500000071 cycles: 1063011088 heartbeat IPC: 0.3665 cumulative IPC: 0.3876 (Simulation time: 02 hr 36 min 59 sec)
Heartbeat CPU 0 instructions: 510000073 cycles: 1089098162 heartbeat IPC: 0.3833 cumulative IPC: 0.3875 (Simulation time: 02 hr 40 min 31 sec)
Heartbeat CPU 0 instructions: 520000074 cycles: 1115293214 heartbeat IPC: 0.3818 cumulative IPC: 0.3873 (Simulation time: 02 hr 43 min 44 sec)
Heartbeat CPU 0 instructions: 530000074 cycles: 1142665957 heartbeat IPC: 0.3653 cumulative IPC: 0.3868 (Simulation time: 02 hr 47 min 05 sec)
Heartbeat CPU 0 instructions: 540000074 cycles: 1169214163 heartbeat IPC: 0.3767 cumulative IPC: 0.3866 (Simulation time: 02 hr 50 min 38 sec)
Heartbeat CPU 0 instructions: 550000077 cycles: 1196773675 heartbeat IPC: 0.3629 cumulative IPC: 0.386 (Simulation time: 02 hr 53 min 58 sec)
Heartbeat CPU 0 instructions: 560000077 cycles: 1224367327 heartbeat IPC: 0.3624 cumulative IPC: 0.3854 (Simulation time: 02 hr 57 min 33 sec)
Heartbeat CPU 0 instructions: 570000078 cycles: 1261544912 heartbeat IPC: 0.269 cumulative IPC: 0.3819 (Simulation time: 03 hr 02 min 10 sec)
Heartbeat CPU 0 instructions: 580000079 cycles: 1292632162 heartbeat IPC: 0.3217 cumulative IPC: 0.3804 (Simulation time: 03 hr 05 min 49 sec)
Heartbeat CPU 0 instructions: 590000081 cycles: 1324598003 heartbeat IPC: 0.3128 cumulative IPC: 0.3788 (Simulation time: 03 hr 09 min 37 sec)
Simulation finished CPU 0 instructions: 500000000 cycles: 1324792577 cumulative IPC: 0.3774 (Simulation time: 03 hr 13 min 13 sec)
Simulation complete CPU 0 instructions: 500000000 cycles: 1324792577 cumulative IPC: 0.3774 (Simulation time: 03 hr 13 min 13 sec)

ChampSim completed all CPUs

=== Simulation ===
CPU 0 runs traces/T2.xz

Region of Interest Statistics

CPU 0 cumulative IPC: 0.3774 instructions: 500000000 cycles: 1324792577
CPU 0 Branch Prediction Accuracy: 87.05% MPKI: 32.06 Average ROB Occupancy at Mispredict: 15.31
Branch type MPKI
BRANCH_DIRECT_JUMP: 0.2882
BRANCH_INDIRECT: 0
BRANCH_CONDITIONAL: 31.77
BRANCH_DIRECT_CALL: 0
BRANCH_INDIRECT_CALL: 0.000158
BRANCH_RETURN: 0

cpu0->cpu0_STLB TOTAL        ACCESS:    7001503 HIT:    6910098 MISS:      91405 MSHR_MERGE:          0
cpu0->cpu0_STLB LOAD         ACCESS:    7001503 HIT:    6910098 MISS:      91405 MSHR_MERGE:          0
cpu0->cpu0_STLB RFO          ACCESS:          0 HIT:          0 MISS:          0 MSHR_MERGE:          0
cpu0->cpu0_STLB PREFETCH     ACCESS:          0 HIT:          0 MISS:          0 MSHR_MERGE:          0
cpu0->cpu0_STLB WRITE        ACCESS:          0 HIT:          0 MISS:          0 MSHR_MERGE:          0
cpu0->cpu0_STLB TRANSLATION  ACCESS:          0 HIT:          0 MISS:          0 MSHR_MERGE:          0
cpu0->cpu0_STLB PREFETCH REQUESTED:          0 ISSUED:          0 USEFUL:          0 USELESS:          0
cpu0->cpu0_STLB AVERAGE MISS LATENCY: 460.4 cycles
cpu0->cpu0_L2C TOTAL        ACCESS:   20183610 HIT:    9622203 MISS:   10561407 MSHR_MERGE:          0
cpu0->cpu0_L2C LOAD         ACCESS:   15363334 HIT:    5733517 MISS:    9629817 MSHR_MERGE:          0
cpu0->cpu0_L2C RFO          ACCESS:    1902656 HIT:    1106306 MISS:     796350 MSHR_MERGE:          0
cpu0->cpu0_L2C PREFETCH     ACCESS:          0 HIT:          0 MISS:          0 MSHR_MERGE:          0
cpu0->cpu0_L2C WRITE        ACCESS:    2782071 HIT:    2780675 MISS:       1396 MSHR_MERGE:          0
cpu0->cpu0_L2C TRANSLATION  ACCESS:     135549 HIT:       1705 MISS:     133844 MSHR_MERGE:          0
cpu0->cpu0_L2C PREFETCH REQUESTED:          0 ISSUED:          0 USEFUL:          0 USELESS:          0
cpu0->cpu0_L2C AVERAGE MISS LATENCY: 89.39 cycles
cpu0->cpu0_L1I TOTAL        ACCESS:    1428153 HIT:    1428151 MISS:          2 MSHR_MERGE:          0
cpu0->cpu0_L1I LOAD         ACCESS:    1428153 HIT:    1428151 MISS:          2 MSHR_MERGE:          0
cpu0->cpu0_L1I RFO          ACCESS:          0 HIT:          0 MISS:          0 MSHR_MERGE:          0
cpu0->cpu0_L1I PREFETCH     ACCESS:          0 HIT:          0 MISS:          0 MSHR_MERGE:          0
cpu0->cpu0_L1I WRITE        ACCESS:          0 HIT:          0 MISS:          0 MSHR_MERGE:          0
cpu0->cpu0_L1I TRANSLATION  ACCESS:          0 HIT:          0 MISS:          0 MSHR_MERGE:          0
cpu0->cpu0_L1I PREFETCH REQUESTED:          0 ISSUED:          0 USEFUL:          0 USELESS:          0
cpu0->cpu0_L1I AVERAGE MISS LATENCY: 225 cycles
cpu0->cpu0_L1D TOTAL        ACCESS:  205724309 HIT:  181361563 MISS:   24362746 MSHR_MERGE:    6961196
cpu0->cpu0_L1D LOAD         ACCESS:  145716970 HIT:  126605305 MISS:   19111665 MSHR_MERGE:    3748324
cpu0->cpu0_L1D RFO          ACCESS:          0 HIT:          0 MISS:          0 MSHR_MERGE:          0
cpu0->cpu0_L1D PREFETCH     ACCESS:          0 HIT:          0 MISS:          0 MSHR_MERGE:          0
cpu0->cpu0_L1D WRITE        ACCESS:   59823972 HIT:   54708487 MISS:    5115485 MSHR_MERGE:    3212825
cpu0->cpu0_L1D TRANSLATION  ACCESS:     183367 HIT:      47771 MISS:     135596 MSHR_MERGE:         47
cpu0->cpu0_L1D PREFETCH REQUESTED:          0 ISSUED:          0 USEFUL:          0 USELESS:          0
cpu0->cpu0_L1D AVERAGE MISS LATENCY: 62.89 cycles
cpu0->cpu0_ITLB TOTAL        ACCESS:    1306803 HIT:    1306803 MISS:          0 MSHR_MERGE:          0
cpu0->cpu0_ITLB LOAD         ACCESS:    1306803 HIT:    1306803 MISS:          0 MSHR_MERGE:          0
cpu0->cpu0_ITLB RFO          ACCESS:          0 HIT:          0 MISS:          0 MSHR_MERGE:          0
cpu0->cpu0_ITLB PREFETCH     ACCESS:          0 HIT:          0 MISS:          0 MSHR_MERGE:          0
cpu0->cpu0_ITLB WRITE        ACCESS:          0 HIT:          0 MISS:          0 MSHR_MERGE:          0
cpu0->cpu0_ITLB TRANSLATION  ACCESS:          0 HIT:          0 MISS:          0 MSHR_MERGE:          0
cpu0->cpu0_ITLB PREFETCH REQUESTED:          0 ISSUED:          0 USEFUL:          0 USELESS:          0
cpu0->cpu0_ITLB AVERAGE MISS LATENCY: - cycles
cpu0->cpu0_DTLB TOTAL        ACCESS:  196500073 HIT:  186964730 MISS:    9535343 MSHR_MERGE:    2533840
cpu0->cpu0_DTLB LOAD         ACCESS:  196500073 HIT:  186964730 MISS:    9535343 MSHR_MERGE:    2533840
cpu0->cpu0_DTLB RFO          ACCESS:          0 HIT:          0 MISS:          0 MSHR_MERGE:          0
cpu0->cpu0_DTLB PREFETCH     ACCESS:          0 HIT:          0 MISS:          0 MSHR_MERGE:          0
cpu0->cpu0_DTLB WRITE        ACCESS:          0 HIT:          0 MISS:          0 MSHR_MERGE:          0
cpu0->cpu0_DTLB TRANSLATION  ACCESS:          0 HIT:          0 MISS:          0 MSHR_MERGE:          0
cpu0->cpu0_DTLB PREFETCH REQUESTED:          0 ISSUED:          0 USEFUL:          0 USELESS:          0
cpu0->cpu0_DTLB AVERAGE MISS LATENCY: 11.02 cycles
cpu0->LLC TOTAL        ACCESS:   11942500 HIT:    7406181 MISS:    4536319 MSHR_MERGE:          0
cpu0->LLC LOAD         ACCESS:    9629815 HIT:    5197329 MISS:    4432486 MSHR_MERGE:          0
cpu0->LLC RFO          ACCESS:     796350 HIT:     791083 MISS:       5267 MSHR_MERGE:          0
cpu0->LLC PREFETCH     ACCESS:          0 HIT:          0 MISS:          0 MSHR_MERGE:          0
cpu0->LLC WRITE        ACCESS:    1382491 HIT:    1377057 MISS:       5434 MSHR_MERGE:          0
cpu0->LLC TRANSLATION  ACCESS:     133844 HIT:      40712 MISS:      93132 MSHR_MERGE:          0
cpu0->LLC PREFETCH REQUESTED:          0 ISSUED:          0 USEFUL:          0 USELESS:          0
cpu0->LLC AVERAGE MISS LATENCY: 172.2 cycles

DRAM Statistics

Channel 0 RQ ROW_BUFFER_HIT:     364143
  ROW_BUFFER_MISS:    4166683
  AVG DBUS CONGESTED CYCLE: 19
Channel 0 WQ ROW_BUFFER_HIT:      19966
  ROW_BUFFER_MISS:      52407
  FULL:          0
Channel 0 REFRESHES ISSUED:     110399
ADAPTIVE LLC final_policy: SRRIP psel=330
ADAPTIVE LLC srrip_leader_miss_frac: 0.499494 (89843 vs 90025)
ADAPTIVE LLC total_evictions: 5723998
