[VMEM] WARNING: physical memory size is smaller than virtual memory size.
WARNING: option --warmup_instructions is deprecated. Use --warmup-instructions instead.
WARNING: option --simulation_instructions is deprecated. Use --simulation-instructions instead.

*** ChampSim Multicore Out-of-Order Simulator ***
Warmup Instructions: 20000000
Simulation Instructions: 50000000
Number of CPUs: 1
Page size: 8192

Off-chip DRAM Size: 16 GiB Channels: 1 Width: 64-bit Data Rate: 3205 MT/s
Heartbeat CPU 0 instructions: 10000001 cycles: 2973897 heartbeat IPC: 3.363 cumulative IPC: 3.363 (Simulation time: 00 hr 00 min 28 sec)
Warmup finished CPU 0 instructions: 20000000 cycles: 5936295 cumulative IPC: 3.369 (Simulation time: 00 hr 00 min 56 sec)
Warmup complete CPU 0 instructions: 20000000 cycles: 5936295 cumulative IPC: 3.369 (Simulation time: 00 hr 00 min 56 sec)
Heartbeat CPU 0 instructions: 20000004 cycles: 5936296 heartbeat IPC: 3.376 cumulative IPC: 4 (Simulation time: 00 hr 00 min 56 sec)
Heartbeat CPU 0 instructions: 30000006 cycles: 18009371 heartbeat IPC: 0.8283 cumulative IPC: 0.8283 (Simulation time: 00 hr 02 min 30 sec)
Heartbeat CPU 0 instructions: 40000009 cycles: 30104268 heartbeat IPC: 0.8268 cumulative IPC: 0.8275 (Simulation time: 00 hr 04 min 04 sec)
Heartbeat CPU 0 instructions: 50000012 cycles: 42150995 heartbeat IPC: 0.8301 cumulative IPC: 0.8284 (Simulation time: 00 hr 05 min 39 sec)
Heartbeat CPU 0 instructions: 60000014 cycles: 54272055 heartbeat IPC: 0.825 cumulative IPC: 0.8275 (Simulation time: 00 hr 07 min 14 sec)
Simulation finished CPU 0 instructions: 50000002 cycles: 60375872 cumulative IPC: 0.8281 (Simulation time: 00 hr 08 min 48 sec)
Simulation complete CPU 0 instructions: 50000002 cycles: 60375872 cumulative IPC: 0.8281 (Simulation time: 00 hr 08 min 48 sec)

ChampSim completed all CPUs

=== Simulation ===
CPU 0 runs traces/470.lbm-1274B.champsimtrace.xz

Region of Interest Statistics

CPU 0 cumulative IPC: 0.8281 instructions: 50000002 cycles: 60375872
CPU 0 Branch Prediction Accuracy: 99.79% MPKI: 0.02864 Average ROB Occupancy at Mispredict: 189.9
Branch type MPKI
BRANCH_DIRECT_JUMP: 0
BRANCH_INDIRECT: 0
BRANCH_CONDITIONAL: 0.02864
BRANCH_DIRECT_CALL: 0
BRANCH_INDIRECT_CALL: 0
BRANCH_RETURN: 0

cpu0->cpu0_STLB TOTAL        ACCESS:      11115 HIT:       5557 MISS:       5558 MSHR_MERGE:          0
cpu0->cpu0_STLB LOAD         ACCESS:      11115 HIT:       5557 MISS:       5558 MSHR_MERGE:          0
cpu0->cpu0_STLB RFO          ACCESS:          0 HIT:          0 MISS:          0 MSHR_MERGE:          0
cpu0->cpu0_STLB PREFETCH     ACCESS:          0 HIT:          0 MISS:          0 MSHR_MERGE:          0
cpu0->cpu0_STLB WRITE        ACCESS:          0 HIT:          0 MISS:          0 MSHR_MERGE:          0
cpu0->cpu0_STLB TRANSLATION  ACCESS:          0 HIT:          0 MISS:          0 MSHR_MERGE:          0
cpu0->cpu0_STLB PREFETCH REQUESTED:          0 ISSUED:          0 USEFUL:          0 USELESS:          0
cpu0->cpu0_STLB AVERAGE MISS LATENCY: 1206 cycles
cpu0->cpu0_L2C TOTAL        ACCESS:    4882176 HIT:    3304629 MISS:    1577547 MSHR_MERGE:     135114
cpu0->cpu0_L2C LOAD         ACCESS:     355730 HIT:     232291 MISS:     123439 MSHR_MERGE:      75088
cpu0->cpu0_L2C RFO          ACCESS:    2002627 HIT:     924641 MISS:    1077986 MSHR_MERGE:          0
cpu0->cpu0_L2C PREFETCH     ACCESS:     509953 HIT:     142530 MISS:     367423 MSHR_MERGE:      60026
cpu0->cpu0_L2C WRITE        ACCESS:    2002738 HIT:    2002723 MISS:         15 MSHR_MERGE:          0
cpu0->cpu0_L2C TRANSLATION  ACCESS:      11128 HIT:       2444 MISS:       8684 MSHR_MERGE:          0
cpu0->cpu0_L2C PREFETCH REQUESTED:     509953 ISSUED:     509953 USEFUL:     307379 USELESS:         19
cpu0->cpu0_L2C AVERAGE MISS LATENCY: 475.9 cycles
cpu0->cpu0_L1I TOTAL        ACCESS:    8493153 HIT:    8493153 MISS:          0 MSHR_MERGE:          0
cpu0->cpu0_L1I LOAD         ACCESS:    8493153 HIT:    8493153 MISS:          0 MSHR_MERGE:          0
cpu0->cpu0_L1I RFO          ACCESS:          0 HIT:          0 MISS:          0 MSHR_MERGE:          0
cpu0->cpu0_L1I PREFETCH     ACCESS:          0 HIT:          0 MISS:          0 MSHR_MERGE:          0
cpu0->cpu0_L1I WRITE        ACCESS:          0 HIT:          0 MISS:          0 MSHR_MERGE:          0
cpu0->cpu0_L1I TRANSLATION  ACCESS:          0 HIT:          0 MISS:          0 MSHR_MERGE:          0
cpu0->cpu0_L1I PREFETCH REQUESTED:          0 ISSUED:          0 USEFUL:          0 USELESS:          0
cpu0->cpu0_L1I AVERAGE MISS LATENCY: - cycles
cpu0->cpu0_L1D TOTAL        ACCESS:    7279937 HIT:    4795280 MISS:    2484657 MSHR_MERGE:     115057
cpu0->cpu0_L1D LOAD         ACCESS:    2245290 HIT:    1829639 MISS:     415651 MSHR_MERGE:      59921
cpu0->cpu0_L1D RFO          ACCESS:          0 HIT:          0 MISS:          0 MSHR_MERGE:          0
cpu0->cpu0_L1D PREFETCH     ACCESS:          0 HIT:          0 MISS:          0 MSHR_MERGE:          0
cpu0->cpu0_L1D WRITE        ACCESS:    5023519 HIT:    2965641 MISS:    2057878 MSHR_MERGE:      55136
cpu0->cpu0_L1D TRANSLATION  ACCESS:      11128 HIT:          0 MISS:      11128 MSHR_MERGE:          0
cpu0->cpu0_L1D PREFETCH REQUESTED:          0 ISSUED:          0 USEFUL:          0 USELESS:          0
cpu0->cpu0_L1D AVERAGE MISS LATENCY: 276 cycles
cpu0->cpu0_ITLB TOTAL        ACCESS:    6949431 HIT:    6949431 MISS:          0 MSHR_MERGE:          0
cpu0->cpu0_ITLB LOAD         ACCESS:    6949431 HIT:    6949431 MISS:          0 MSHR_MERGE:          0
cpu0->cpu0_ITLB RFO          ACCESS:          0 HIT:          0 MISS:          0 MSHR_MERGE:          0
cpu0->cpu0_ITLB PREFETCH     ACCESS:          0 HIT:          0 MISS:          0 MSHR_MERGE:          0
cpu0->cpu0_ITLB WRITE        ACCESS:          0 HIT:          0 MISS:          0 MSHR_MERGE:          0
cpu0->cpu0_ITLB TRANSLATION  ACCESS:          0 HIT:          0 MISS:          0 MSHR_MERGE:          0
cpu0->cpu0_ITLB PREFETCH REQUESTED:          0 ISSUED:          0 USEFUL:          0 USELESS:          0
cpu0->cpu0_ITLB AVERAGE MISS LATENCY: - cycles
cpu0->cpu0_DTLB TOTAL        ACCESS:    6776107 HIT:    6751827 MISS:      24280 MSHR_MERGE:      13165
cpu0->cpu0_DTLB LOAD         ACCESS:    6776107 HIT:    6751827 MISS:      24280 MSHR_MERGE:      13165
cpu0->cpu0_DTLB RFO          ACCESS:          0 HIT:          0 MISS:          0 MSHR_MERGE:          0
cpu0->cpu0_DTLB PREFETCH     ACCESS:          0 HIT:          0 MISS:          0 MSHR_MERGE:          0
cpu0->cpu0_DTLB WRITE        ACCESS:          0 HIT:          0 MISS:          0 MSHR_MERGE:          0
cpu0->cpu0_DTLB TRANSLATION  ACCESS:          0 HIT:          0 MISS:          0 MSHR_MERGE:          0
cpu0->cpu0_DTLB PREFETCH REQUESTED:          0 ISSUED:          0 USEFUL:          0 USELESS:          0
cpu0->cpu0_DTLB AVERAGE MISS LATENCY: 607.7 cycles
cpu0->LLC TOTAL        ACCESS:    2520576 HIT:    1089066 MISS:    1431510 MSHR_MERGE:          0
cpu0->LLC LOAD         ACCESS:      48351 HIT:          0 MISS:      48351 MSHR_MERGE:          0
cpu0->LLC RFO          ACCESS:    1077985 HIT:      10924 MISS:    1067061 MSHR_MERGE:          0
cpu0->LLC PREFETCH     ACCESS:     307396 HIT:          0 MISS:     307396 MSHR_MERGE:          0
cpu0->LLC WRITE        ACCESS:    1078160 HIT:    1078142 MISS:         18 MSHR_MERGE:          0
cpu0->LLC TRANSLATION  ACCESS:       8684 HIT:          0 MISS:       8684 MSHR_MERGE:          0
cpu0->LLC PREFETCH REQUESTED:          0 ISSUED:          0 USEFUL:          0 USELESS:          0
cpu0->LLC AVERAGE MISS LATENCY: 477.3 cycles

DRAM Statistics

Channel 0 RQ ROW_BUFFER_HIT:      41045
  ROW_BUFFER_MISS:    1390438
  AVG DBUS CONGESTED CYCLE: 12.19
Channel 0 WQ ROW_BUFFER_HIT:     167643
  ROW_BUFFER_MISS:     899144
  FULL:          0
Channel 0 REFRESHES ISSUED:       5032
