[VMEM] WARNING: physical memory size is smaller than virtual memory size.
WARNING: option --warmup_instructions is deprecated. Use --warmup-instructions instead.
WARNING: option --simulation_instructions is deprecated. Use --simulation-instructions instead.

*** ChampSim Multicore Out-of-Order Simulator ***
Warmup Instructions: 20000000
Simulation Instructions: 50000000
Number of CPUs: 1
Page size: 8192

Off-chip DRAM Size: 16 GiB Channels: 1 Width: 64-bit Data Rate: 3205 MT/s
Heartbeat CPU 0 instructions: 10000000 cycles: 4302706 heartbeat IPC: 2.324 cumulative IPC: 2.324 (Simulation time: 00 hr 00 min 53 sec)
Heartbeat CPU 0 instructions: 20000000 cycles: 8597144 heartbeat IPC: 2.329 cumulative IPC: 2.326 (Simulation time: 00 hr 01 min 46 sec)
Warmup finished CPU 0 instructions: 20000000 cycles: 8597144 cumulative IPC: 2.326 (Simulation time: 00 hr 01 min 46 sec)
Warmup complete CPU 0 instructions: 20000000 cycles: 8597144 cumulative IPC: 2.326 (Simulation time: 00 hr 01 min 46 sec)
Heartbeat CPU 0 instructions: 30000002 cycles: 17385131 heartbeat IPC: 1.138 cumulative IPC: 1.138 (Simulation time: 00 hr 03 min 12 sec)
Heartbeat CPU 0 instructions: 40000003 cycles: 26201527 heartbeat IPC: 1.134 cumulative IPC: 1.136 (Simulation time: 00 hr 04 min 41 sec)
Heartbeat CPU 0 instructions: 50000003 cycles: 35006707 heartbeat IPC: 1.136 cumulative IPC: 1.136 (Simulation time: 00 hr 06 min 07 sec)
Heartbeat CPU 0 instructions: 60000005 cycles: 43814287 heartbeat IPC: 1.135 cumulative IPC: 1.136 (Simulation time: 00 hr 07 min 32 sec)
Simulation finished CPU 0 instructions: 50000000 cycles: 44043746 cumulative IPC: 1.135 (Simulation time: 00 hr 08 min 58 sec)
Simulation complete CPU 0 instructions: 50000000 cycles: 44043746 cumulative IPC: 1.135 (Simulation time: 00 hr 08 min 58 sec)

ChampSim completed all CPUs

=== Simulation ===
CPU 0 runs traces/603.bwaves_s-1740B.champsimtrace.xz

Region of Interest Statistics

CPU 0 cumulative IPC: 1.135 instructions: 50000000 cycles: 44043746
CPU 0 Branch Prediction Accuracy: 99.97% MPKI: 0.00734 Average ROB Occupancy at Mispredict: 190.1
Branch type MPKI
BRANCH_DIRECT_JUMP: 0
BRANCH_INDIRECT: 0
BRANCH_CONDITIONAL: 0.00734
BRANCH_DIRECT_CALL: 0
BRANCH_INDIRECT_CALL: 0
BRANCH_RETURN: 0

cpu0->cpu0_STLB TOTAL        ACCESS:       7425 HIT:        365 MISS:       7060 MSHR_MERGE:          0
cpu0->cpu0_STLB LOAD         ACCESS:       7425 HIT:        365 MISS:       7060 MSHR_MERGE:          0
cpu0->cpu0_STLB RFO          ACCESS:          0 HIT:          0 MISS:          0 MSHR_MERGE:          0
cpu0->cpu0_STLB PREFETCH     ACCESS:          0 HIT:          0 MISS:          0 MSHR_MERGE:          0
cpu0->cpu0_STLB WRITE        ACCESS:          0 HIT:          0 MISS:          0 MSHR_MERGE:          0
cpu0->cpu0_STLB TRANSLATION  ACCESS:          0 HIT:          0 MISS:          0 MSHR_MERGE:          0
cpu0->cpu0_STLB PREFETCH REQUESTED:          0 ISSUED:          0 USEFUL:          0 USELESS:          0
cpu0->cpu0_STLB AVERAGE MISS LATENCY: 718.7 cycles
cpu0->cpu0_L2C TOTAL        ACCESS:    3428945 HIT:    2057487 MISS:    1371458 MSHR_MERGE:     380786
cpu0->cpu0_L2C LOAD         ACCESS:    1020264 HIT:     887848 MISS:     132416 MSHR_MERGE:     107543
cpu0->cpu0_L2C RFO          ACCESS:      32794 HIT:       8432 MISS:      24362 MSHR_MERGE:          0
cpu0->cpu0_L2C PREFETCH     ACCESS:    2325767 HIT:    1121811 MISS:    1203956 MSHR_MERGE:     273243
cpu0->cpu0_L2C WRITE        ACCESS:      36566 HIT:      36292 MISS:        274 MSHR_MERGE:          0
cpu0->cpu0_L2C TRANSLATION  ACCESS:      13554 HIT:       3104 MISS:      10450 MSHR_MERGE:          0
cpu0->cpu0_L2C PREFETCH REQUESTED:    2526254 ISSUED:    2325755 USEFUL:     908416 USELESS:      22285
cpu0->cpu0_L2C AVERAGE MISS LATENCY: 130.8 cycles
cpu0->cpu0_L1I TOTAL        ACCESS:   10931420 HIT:   10931420 MISS:          0 MSHR_MERGE:          0
cpu0->cpu0_L1I LOAD         ACCESS:   10931420 HIT:   10931420 MISS:          0 MSHR_MERGE:          0
cpu0->cpu0_L1I RFO          ACCESS:          0 HIT:          0 MISS:          0 MSHR_MERGE:          0
cpu0->cpu0_L1I PREFETCH     ACCESS:          0 HIT:          0 MISS:          0 MSHR_MERGE:          0
cpu0->cpu0_L1I WRITE        ACCESS:          0 HIT:          0 MISS:          0 MSHR_MERGE:          0
cpu0->cpu0_L1I TRANSLATION  ACCESS:          0 HIT:          0 MISS:          0 MSHR_MERGE:          0
cpu0->cpu0_L1I PREFETCH REQUESTED:          0 ISSUED:          0 USEFUL:          0 USELESS:          0
cpu0->cpu0_L1I AVERAGE MISS LATENCY: - cycles
cpu0->cpu0_L1D TOTAL        ACCESS:   16954593 HIT:   15795032 MISS:    1159561 MSHR_MERGE:      92810
cpu0->cpu0_L1D LOAD         ACCESS:   14123827 HIT:   13037187 MISS:    1086640 MSHR_MERGE:      66336
cpu0->cpu0_L1D RFO          ACCESS:          0 HIT:          0 MISS:          0 MSHR_MERGE:          0
cpu0->cpu0_L1D PREFETCH     ACCESS:          0 HIT:          0 MISS:          0 MSHR_MERGE:          0
cpu0->cpu0_L1D WRITE        ACCESS:    2816699 HIT:    2757608 MISS:      59091 MSHR_MERGE:      26198
cpu0->cpu0_L1D TRANSLATION  ACCESS:      14067 HIT:        237 MISS:      13830 MSHR_MERGE:        276
cpu0->cpu0_L1D PREFETCH REQUESTED:          0 ISSUED:          0 USEFUL:          0 USELESS:          0
cpu0->cpu0_L1D AVERAGE MISS LATENCY: 44.58 cycles
cpu0->cpu0_ITLB TOTAL        ACCESS:    9685823 HIT:    9685823 MISS:          0 MSHR_MERGE:          0
cpu0->cpu0_ITLB LOAD         ACCESS:    9685823 HIT:    9685823 MISS:          0 MSHR_MERGE:          0
cpu0->cpu0_ITLB RFO          ACCESS:          0 HIT:          0 MISS:          0 MSHR_MERGE:          0
cpu0->cpu0_ITLB PREFETCH     ACCESS:          0 HIT:          0 MISS:          0 MSHR_MERGE:          0
cpu0->cpu0_ITLB WRITE        ACCESS:          0 HIT:          0 MISS:          0 MSHR_MERGE:          0
cpu0->cpu0_ITLB TRANSLATION  ACCESS:          0 HIT:          0 MISS:          0 MSHR_MERGE:          0
cpu0->cpu0_ITLB PREFETCH REQUESTED:          0 ISSUED:          0 USEFUL:          0 USELESS:          0
cpu0->cpu0_ITLB AVERAGE MISS LATENCY: - cycles
cpu0->cpu0_DTLB TOTAL        ACCESS:   16292822 HIT:   16280193 MISS:      12629 MSHR_MERGE:       5204
cpu0->cpu0_DTLB LOAD         ACCESS:   16292822 HIT:   16280193 MISS:      12629 MSHR_MERGE:       5204
cpu0->cpu0_DTLB RFO          ACCESS:          0 HIT:          0 MISS:          0 MSHR_MERGE:          0
cpu0->cpu0_DTLB PREFETCH     ACCESS:          0 HIT:          0 MISS:          0 MSHR_MERGE:          0
cpu0->cpu0_DTLB WRITE        ACCESS:          0 HIT:          0 MISS:          0 MSHR_MERGE:          0
cpu0->cpu0_DTLB TRANSLATION  ACCESS:          0 HIT:          0 MISS:          0 MSHR_MERGE:          0
cpu0->cpu0_DTLB PREFETCH REQUESTED:          0 ISSUED:          0 USEFUL:          0 USELESS:          0
cpu0->cpu0_DTLB AVERAGE MISS LATENCY: 688.4 cycles
cpu0->LLC TOTAL        ACCESS:    1015081 HIT:       5289 MISS:    1009792 MSHR_MERGE:          0
cpu0->LLC LOAD         ACCESS:      24873 HIT:        263 MISS:      24610 MSHR_MERGE:          0
cpu0->LLC RFO          ACCESS:      24362 HIT:          0 MISS:      24362 MSHR_MERGE:          0
cpu0->LLC PREFETCH     ACCESS:     930713 HIT:       1562 MISS:     929151 MSHR_MERGE:          0
cpu0->LLC WRITE        ACCESS:      24683 HIT:       3460 MISS:      21223 MSHR_MERGE:          0
cpu0->LLC TRANSLATION  ACCESS:      10450 HIT:          4 MISS:      10446 MSHR_MERGE:          0
cpu0->LLC PREFETCH REQUESTED:          0 ISSUED:          0 USEFUL:          0 USELESS:          0
cpu0->LLC AVERAGE MISS LATENCY: 126.4 cycles

DRAM Statistics

Channel 0 RQ ROW_BUFFER_HIT:        942
  ROW_BUFFER_MISS:     987627
  AVG DBUS CONGESTED CYCLE: 4.33
Channel 0 WQ ROW_BUFFER_HIT:       2672
  ROW_BUFFER_MISS:      21689
  FULL:          0
Channel 0 REFRESHES ISSUED:       3670
