[VMEM] WARNING: physical memory size is smaller than virtual memory size.
WARNING: option --warmup_instructions is deprecated. Use --warmup-instructions instead.
WARNING: option --simulation_instructions is deprecated. Use --simulation-instructions instead.

*** ChampSim Multicore Out-of-Order Simulator ***
Warmup Instructions: 20000000
Simulation Instructions: 50000000
Number of CPUs: 1
Page size: 8192

Off-chip DRAM Size: 16 GiB Channels: 1 Width: 64-bit Data Rate: 3205 MT/s
Heartbeat CPU 0 instructions: 10000000 cycles: 8239107 heartbeat IPC: 1.214 cumulative IPC: 1.214 (Simulation time: 00 hr 01 min 30 sec)
Heartbeat CPU 0 instructions: 20000000 cycles: 15265879 heartbeat IPC: 1.423 cumulative IPC: 1.31 (Simulation time: 00 hr 02 min 51 sec)
Warmup finished CPU 0 instructions: 20000000 cycles: 15265879 cumulative IPC: 1.31 (Simulation time: 00 hr 02 min 51 sec)
Warmup complete CPU 0 instructions: 20000000 cycles: 15265879 cumulative IPC: 1.31 (Simulation time: 00 hr 02 min 51 sec)
Heartbeat CPU 0 instructions: 30000002 cycles: 44294039 heartbeat IPC: 0.3445 cumulative IPC: 0.3445 (Simulation time: 00 hr 06 min 07 sec)
Heartbeat CPU 0 instructions: 40000004 cycles: 73605224 heartbeat IPC: 0.3412 cumulative IPC: 0.3428 (Simulation time: 00 hr 09 min 26 sec)
Heartbeat CPU 0 instructions: 50000004 cycles: 102798646 heartbeat IPC: 0.3425 cumulative IPC: 0.3427 (Simulation time: 00 hr 12 min 49 sec)
Heartbeat CPU 0 instructions: 60000007 cycles: 130284728 heartbeat IPC: 0.3638 cumulative IPC: 0.3478 (Simulation time: 00 hr 15 min 58 sec)
Simulation finished CPU 0 instructions: 50000001 cycles: 141811795 cumulative IPC: 0.3526 (Simulation time: 00 hr 19 min 02 sec)
Simulation complete CPU 0 instructions: 50000001 cycles: 141811795 cumulative IPC: 0.3526 (Simulation time: 00 hr 19 min 02 sec)

ChampSim completed all CPUs

=== Simulation ===
CPU 0 runs traces/620.omnetpp_s-874B.champsimtrace.xz

Region of Interest Statistics

CPU 0 cumulative IPC: 0.3526 instructions: 50000001 cycles: 141811795
CPU 0 Branch Prediction Accuracy: 96.16% MPKI: 7.99 Average ROB Occupancy at Mispredict: 59.41
Branch type MPKI
BRANCH_DIRECT_JUMP: 0.9384
BRANCH_INDIRECT: 0.1208
BRANCH_CONDITIONAL: 5.805
BRANCH_DIRECT_CALL: 0.00236
BRANCH_INDIRECT_CALL: 0.7298
BRANCH_RETURN: 0.3936

cpu0->cpu0_STLB TOTAL        ACCESS:     828773 HIT:     691677 MISS:     137096 MSHR_MERGE:          0
cpu0->cpu0_STLB LOAD         ACCESS:     828773 HIT:     691677 MISS:     137096 MSHR_MERGE:          0
cpu0->cpu0_STLB RFO          ACCESS:          0 HIT:          0 MISS:          0 MSHR_MERGE:          0
cpu0->cpu0_STLB PREFETCH     ACCESS:          0 HIT:          0 MISS:          0 MSHR_MERGE:          0
cpu0->cpu0_STLB WRITE        ACCESS:          0 HIT:          0 MISS:          0 MSHR_MERGE:          0
cpu0->cpu0_STLB TRANSLATION  ACCESS:          0 HIT:          0 MISS:          0 MSHR_MERGE:          0
cpu0->cpu0_STLB PREFETCH REQUESTED:          0 ISSUED:          0 USEFUL:          0 USELESS:          0
cpu0->cpu0_STLB AVERAGE MISS LATENCY: 325.2 cycles
cpu0->cpu0_L2C TOTAL        ACCESS:    1972945 HIT:     878251 MISS:    1094694 MSHR_MERGE:       2766
cpu0->cpu0_L2C LOAD         ACCESS:     933828 HIT:     288085 MISS:     645743 MSHR_MERGE:         33
cpu0->cpu0_L2C RFO          ACCESS:     139174 HIT:      31987 MISS:     107187 MSHR_MERGE:          1
cpu0->cpu0_L2C PREFETCH     ACCESS:      99860 HIT:      31475 MISS:      68385 MSHR_MERGE:       2732
cpu0->cpu0_L2C WRITE        ACCESS:     506789 HIT:     504397 MISS:       2392 MSHR_MERGE:          0
cpu0->cpu0_L2C TRANSLATION  ACCESS:     293294 HIT:      22307 MISS:     270987 MSHR_MERGE:          0
cpu0->cpu0_L2C PREFETCH REQUESTED:      99860 ISSUED:      99860 USEFUL:      14398 USELESS:      51208
cpu0->cpu0_L2C AVERAGE MISS LATENCY: 137.4 cycles
cpu0->cpu0_L1I TOTAL        ACCESS:    7893683 HIT:    7868459 MISS:      25224 MSHR_MERGE:       6741
cpu0->cpu0_L1I LOAD         ACCESS:    7893683 HIT:    7868459 MISS:      25224 MSHR_MERGE:       6741
cpu0->cpu0_L1I RFO          ACCESS:          0 HIT:          0 MISS:          0 MSHR_MERGE:          0
cpu0->cpu0_L1I PREFETCH     ACCESS:          0 HIT:          0 MISS:          0 MSHR_MERGE:          0
cpu0->cpu0_L1I WRITE        ACCESS:          0 HIT:          0 MISS:          0 MSHR_MERGE:          0
cpu0->cpu0_L1I TRANSLATION  ACCESS:          0 HIT:          0 MISS:          0 MSHR_MERGE:          0
cpu0->cpu0_L1I PREFETCH REQUESTED:          0 ISSUED:          0 USEFUL:          0 USELESS:          0
cpu0->cpu0_L1I AVERAGE MISS LATENCY: 26.55 cycles
cpu0->cpu0_L1D TOTAL        ACCESS:   18747770 HIT:   16940156 MISS:    1807614 MSHR_MERGE:     459793
cpu0->cpu0_L1D LOAD         ACCESS:    9411570 HIT:    8285788 MISS:    1125782 MSHR_MERGE:     210435
cpu0->cpu0_L1D RFO          ACCESS:          0 HIT:          0 MISS:          0 MSHR_MERGE:          0
cpu0->cpu0_L1D PREFETCH     ACCESS:          0 HIT:          0 MISS:          0 MSHR_MERGE:          0
cpu0->cpu0_L1D WRITE        ACCESS:    9034937 HIT:    8646698 MISS:     388239 MSHR_MERGE:     249059
cpu0->cpu0_L1D TRANSLATION  ACCESS:     301263 HIT:       7670 MISS:     293593 MSHR_MERGE:        299
cpu0->cpu0_L1D PREFETCH REQUESTED:          0 ISSUED:          0 USEFUL:          0 USELESS:          0
cpu0->cpu0_L1D AVERAGE MISS LATENCY: 113.1 cycles
cpu0->cpu0_ITLB TOTAL        ACCESS:    7235310 HIT:    7235106 MISS:        204 MSHR_MERGE:        100
cpu0->cpu0_ITLB LOAD         ACCESS:    7235310 HIT:    7235106 MISS:        204 MSHR_MERGE:        100
cpu0->cpu0_ITLB RFO          ACCESS:          0 HIT:          0 MISS:          0 MSHR_MERGE:          0
cpu0->cpu0_ITLB PREFETCH     ACCESS:          0 HIT:          0 MISS:          0 MSHR_MERGE:          0
cpu0->cpu0_ITLB WRITE        ACCESS:          0 HIT:          0 MISS:          0 MSHR_MERGE:          0
cpu0->cpu0_ITLB TRANSLATION  ACCESS:          0 HIT:          0 MISS:          0 MSHR_MERGE:          0
cpu0->cpu0_ITLB PREFETCH REQUESTED:          0 ISSUED:          0 USEFUL:          0 USELESS:          0
cpu0->cpu0_ITLB AVERAGE MISS LATENCY: 188.2 cycles
cpu0->cpu0_DTLB TOTAL        ACCESS:   17186378 HIT:   16235025 MISS:     951353 MSHR_MERGE:     122683
cpu0->cpu0_DTLB LOAD         ACCESS:   17186378 HIT:   16235025 MISS:     951353 MSHR_MERGE:     122683
cpu0->cpu0_DTLB RFO          ACCESS:          0 HIT:          0 MISS:          0 MSHR_MERGE:          0
cpu0->cpu0_DTLB PREFETCH     ACCESS:          0 HIT:          0 MISS:          0 MSHR_MERGE:          0
cpu0->cpu0_DTLB WRITE        ACCESS:          0 HIT:          0 MISS:          0 MSHR_MERGE:          0
cpu0->cpu0_DTLB TRANSLATION  ACCESS:          0 HIT:          0 MISS:          0 MSHR_MERGE:          0
cpu0->cpu0_DTLB PREFETCH REQUESTED:          0 ISSUED:          0 USEFUL:          0 USELESS:          0
cpu0->cpu0_DTLB AVERAGE MISS LATENCY: 57.94 cycles
cpu0->LLC TOTAL        ACCESS:    1471948 HIT:     341096 MISS:    1130852 MSHR_MERGE:          0
cpu0->LLC LOAD         ACCESS:     645710 HIT:     131736 MISS:     513974 MSHR_MERGE:          0
cpu0->LLC RFO          ACCESS:     107186 HIT:      23541 MISS:      83645 MSHR_MERGE:          0
cpu0->LLC PREFETCH     ACCESS:      65653 HIT:       2257 MISS:      63396 MSHR_MERGE:          0
cpu0->LLC WRITE        ACCESS:     382412 HIT:     127039 MISS:     255373 MSHR_MERGE:          0
cpu0->LLC TRANSLATION  ACCESS:     270987 HIT:      56523 MISS:     214464 MSHR_MERGE:          0
cpu0->LLC PREFETCH REQUESTED:          0 ISSUED:          0 USEFUL:          0 USELESS:          0
cpu0->LLC AVERAGE MISS LATENCY: 118.1 cycles

DRAM Statistics

Channel 0 RQ ROW_BUFFER_HIT:      17654
  ROW_BUFFER_MISS:     857788
  AVG DBUS CONGESTED CYCLE: 23.29
Channel 0 WQ ROW_BUFFER_HIT:      74505
  ROW_BUFFER_MISS:     205872
  FULL:          0
Channel 0 REFRESHES ISSUED:      11817
