[VMEM] WARNING: physical memory size is smaller than virtual memory size.
WARNING: option --warmup_instructions is deprecated. Use --warmup-instructions instead.
WARNING: option --simulation_instructions is deprecated. Use --simulation-instructions instead.

*** ChampSim Multicore Out-of-Order Simulator ***
Warmup Instructions: 20000000
Simulation Instructions: 50000000
Number of CPUs: 1
Page size: 8192

Off-chip DRAM Size: 16 GiB Channels: 1 Width: 64-bit Data Rate: 3205 MT/s
Heartbeat CPU 0 instructions: 10000000 cycles: 4888202 heartbeat IPC: 2.046 cumulative IPC: 2.046 (Simulation time: 00 hr 01 min 00 sec)
Heartbeat CPU 0 instructions: 20000000 cycles: 9769641 heartbeat IPC: 2.049 cumulative IPC: 2.047 (Simulation time: 00 hr 02 min 00 sec)
Warmup finished CPU 0 instructions: 20000000 cycles: 9769641 cumulative IPC: 2.047 (Simulation time: 00 hr 02 min 00 sec)
Warmup complete CPU 0 instructions: 20000000 cycles: 9769641 cumulative IPC: 2.047 (Simulation time: 00 hr 02 min 00 sec)
Heartbeat CPU 0 instructions: 30000002 cycles: 22310168 heartbeat IPC: 0.7974 cumulative IPC: 0.7974 (Simulation time: 00 hr 03 min 56 sec)
Heartbeat CPU 0 instructions: 40000002 cycles: 34932455 heartbeat IPC: 0.7922 cumulative IPC: 0.7948 (Simulation time: 00 hr 05 min 53 sec)
Heartbeat CPU 0 instructions: 50000003 cycles: 47535208 heartbeat IPC: 0.7935 cumulative IPC: 0.7944 (Simulation time: 00 hr 07 min 50 sec)
Heartbeat CPU 0 instructions: 60000005 cycles: 60098726 heartbeat IPC: 0.796 cumulative IPC: 0.7948 (Simulation time: 00 hr 09 min 50 sec)
Simulation finished CPU 0 instructions: 50000001 cycles: 62979044 cumulative IPC: 0.7939 (Simulation time: 00 hr 11 min 45 sec)
Simulation complete CPU 0 instructions: 50000001 cycles: 62979044 cumulative IPC: 0.7939 (Simulation time: 00 hr 11 min 45 sec)

ChampSim completed all CPUs

=== Simulation ===
CPU 0 runs traces/603.bwaves_s-1740B.champsimtrace.xz

Region of Interest Statistics

CPU 0 cumulative IPC: 0.7939 instructions: 50000001 cycles: 62979044
CPU 0 Branch Prediction Accuracy: 99.97% MPKI: 0.00734 Average ROB Occupancy at Mispredict: 96.13
Branch type MPKI
BRANCH_DIRECT_JUMP: 0
BRANCH_INDIRECT: 0
BRANCH_CONDITIONAL: 0.00734
BRANCH_DIRECT_CALL: 0
BRANCH_INDIRECT_CALL: 0
BRANCH_RETURN: 0

cpu0->cpu0_STLB TOTAL        ACCESS:       7425 HIT:        365 MISS:       7060 MSHR_MERGE:          0
cpu0->cpu0_STLB LOAD         ACCESS:       7425 HIT:        365 MISS:       7060 MSHR_MERGE:          0
cpu0->cpu0_STLB RFO          ACCESS:          0 HIT:          0 MISS:          0 MSHR_MERGE:          0
cpu0->cpu0_STLB PREFETCH     ACCESS:          0 HIT:          0 MISS:          0 MSHR_MERGE:          0
cpu0->cpu0_STLB WRITE        ACCESS:          0 HIT:          0 MISS:          0 MSHR_MERGE:          0
cpu0->cpu0_STLB TRANSLATION  ACCESS:          0 HIT:          0 MISS:          0 MSHR_MERGE:          0
cpu0->cpu0_STLB PREFETCH REQUESTED:          0 ISSUED:          0 USEFUL:          0 USELESS:          0
cpu0->cpu0_STLB AVERAGE MISS LATENCY: 688.8 cycles
cpu0->cpu0_L2C TOTAL        ACCESS:    1102147 HIT:     133666 MISS:     968481 MSHR_MERGE:          0
cpu0->cpu0_L2C LOAD         ACCESS:    1017823 HIT:      84505 MISS:     933318 MSHR_MERGE:          0
cpu0->cpu0_L2C RFO          ACCESS:      33739 HIT:       9377 MISS:      24362 MSHR_MERGE:          0
cpu0->cpu0_L2C PREFETCH     ACCESS:          0 HIT:          0 MISS:          0 MSHR_MERGE:          0
cpu0->cpu0_L2C WRITE        ACCESS:      36982 HIT:      36688 MISS:        294 MSHR_MERGE:          0
cpu0->cpu0_L2C TRANSLATION  ACCESS:      13603 HIT:       3096 MISS:      10507 MSHR_MERGE:          0
cpu0->cpu0_L2C PREFETCH REQUESTED:          0 ISSUED:          0 USEFUL:          0 USELESS:          0
cpu0->cpu0_L2C AVERAGE MISS LATENCY: 193.1 cycles
cpu0->cpu0_L1I TOTAL        ACCESS:   14551668 HIT:   14551668 MISS:          0 MSHR_MERGE:          0
cpu0->cpu0_L1I LOAD         ACCESS:   14551668 HIT:   14551668 MISS:          0 MSHR_MERGE:          0
cpu0->cpu0_L1I RFO          ACCESS:          0 HIT:          0 MISS:          0 MSHR_MERGE:          0
cpu0->cpu0_L1I PREFETCH     ACCESS:          0 HIT:          0 MISS:          0 MSHR_MERGE:          0
cpu0->cpu0_L1I WRITE        ACCESS:          0 HIT:          0 MISS:          0 MSHR_MERGE:          0
cpu0->cpu0_L1I TRANSLATION  ACCESS:          0 HIT:          0 MISS:          0 MSHR_MERGE:          0
cpu0->cpu0_L1I PREFETCH REQUESTED:          0 ISSUED:          0 USEFUL:          0 USELESS:          0
cpu0->cpu0_L1I AVERAGE MISS LATENCY: - cycles
cpu0->cpu0_L1D TOTAL        ACCESS:   17428875 HIT:   16075497 MISS:    1353378 MSHR_MERGE:     288152
cpu0->cpu0_L1D LOAD         ACCESS:   14598108 HIT:   13307016 MISS:    1291092 MSHR_MERGE:     273215
cpu0->cpu0_L1D RFO          ACCESS:          0 HIT:          0 MISS:          0 MSHR_MERGE:          0
cpu0->cpu0_L1D PREFETCH     ACCESS:          0 HIT:          0 MISS:          0 MSHR_MERGE:          0
cpu0->cpu0_L1D WRITE        ACCESS:    2816699 HIT:    2768195 MISS:      48504 MSHR_MERGE:      14758
cpu0->cpu0_L1D TRANSLATION  ACCESS:      14068 HIT:        286 MISS:      13782 MSHR_MERGE:        179
cpu0->cpu0_L1D PREFETCH REQUESTED:          0 ISSUED:          0 USEFUL:          0 USELESS:          0
cpu0->cpu0_L1D AVERAGE MISS LATENCY: 184.5 cycles
cpu0->cpu0_ITLB TOTAL        ACCESS:   13630647 HIT:   13630647 MISS:          0 MSHR_MERGE:          0
cpu0->cpu0_ITLB LOAD         ACCESS:   13630647 HIT:   13630647 MISS:          0 MSHR_MERGE:          0
cpu0->cpu0_ITLB RFO          ACCESS:          0 HIT:          0 MISS:          0 MSHR_MERGE:          0
cpu0->cpu0_ITLB PREFETCH     ACCESS:          0 HIT:          0 MISS:          0 MSHR_MERGE:          0
cpu0->cpu0_ITLB WRITE        ACCESS:          0 HIT:          0 MISS:          0 MSHR_MERGE:          0
cpu0->cpu0_ITLB TRANSLATION  ACCESS:          0 HIT:          0 MISS:          0 MSHR_MERGE:          0
cpu0->cpu0_ITLB PREFETCH REQUESTED:          0 ISSUED:          0 USEFUL:          0 USELESS:          0
cpu0->cpu0_ITLB AVERAGE MISS LATENCY: - cycles
cpu0->cpu0_DTLB TOTAL        ACCESS:   16763964 HIT:   16751675 MISS:      12289 MSHR_MERGE:       4864
cpu0->cpu0_DTLB LOAD         ACCESS:   16763964 HIT:   16751675 MISS:      12289 MSHR_MERGE:       4864
cpu0->cpu0_DTLB RFO          ACCESS:          0 HIT:          0 MISS:          0 MSHR_MERGE:          0
cpu0->cpu0_DTLB PREFETCH     ACCESS:          0 HIT:          0 MISS:          0 MSHR_MERGE:          0
cpu0->cpu0_DTLB WRITE        ACCESS:          0 HIT:          0 MISS:          0 MSHR_MERGE:          0
cpu0->cpu0_DTLB TRANSLATION  ACCESS:          0 HIT:          0 MISS:          0 MSHR_MERGE:          0
cpu0->cpu0_DTLB PREFETCH REQUESTED:          0 ISSUED:          0 USEFUL:          0 USELESS:          0
cpu0->cpu0_DTLB AVERAGE MISS LATENCY: 659.8 cycles
cpu0->LLC TOTAL        ACCESS:     992900 HIT:       4889 MISS:     988011 MSHR_MERGE:          0
cpu0->LLC LOAD         ACCESS:     933318 HIT:       1842 MISS:     931476 MSHR_MERGE:          0
cpu0->LLC RFO          ACCESS:      24362 HIT:          0 MISS:      24362 MSHR_MERGE:          0
cpu0->LLC PREFETCH     ACCESS:          0 HIT:          0 MISS:          0 MSHR_MERGE:          0
cpu0->LLC WRITE        ACCESS:      24713 HIT:       3043 MISS:      21670 MSHR_MERGE:          0
cpu0->LLC TRANSLATION  ACCESS:      10507 HIT:          4 MISS:      10503 MSHR_MERGE:          0
cpu0->LLC PREFETCH REQUESTED:          0 ISSUED:          0 USEFUL:          0 USELESS:          0
cpu0->LLC AVERAGE MISS LATENCY: 172.8 cycles

DRAM Statistics

Channel 0 RQ ROW_BUFFER_HIT:        594
  ROW_BUFFER_MISS:     965747
  AVG DBUS CONGESTED CYCLE: 5.95
Channel 0 WQ ROW_BUFFER_HIT:       4471
  ROW_BUFFER_MISS:      19991
  FULL:          0
Channel 0 REFRESHES ISSUED:       5248
