[VMEM] WARNING: physical memory size is smaller than virtual memory size.
WARNING: option --warmup_instructions is deprecated. Use --warmup-instructions instead.
WARNING: option --simulation_instructions is deprecated. Use --simulation-instructions instead.

*** ChampSim Multicore Out-of-Order Simulator ***
Warmup Instructions: 20000000
Simulation Instructions: 50000000
Number of CPUs: 1
Page size: 8192

Off-chip DRAM Size: 16 GiB Channels: 1 Width: 64-bit Data Rate: 3205 MT/s
Heartbeat CPU 0 instructions: 10000003 cycles: 4392356 heartbeat IPC: 2.277 cumulative IPC: 2.277 (Simulation time: 00 hr 00 min 50 sec)
Warmup finished CPU 0 instructions: 20000000 cycles: 8755169 cumulative IPC: 2.284 (Simulation time: 00 hr 01 min 40 sec)
Warmup complete CPU 0 instructions: 20000000 cycles: 8755169 cumulative IPC: 2.284 (Simulation time: 00 hr 01 min 40 sec)
Heartbeat CPU 0 instructions: 20000004 cycles: 8755170 heartbeat IPC: 2.292 cumulative IPC: 4 (Simulation time: 00 hr 01 min 40 sec)
Heartbeat CPU 0 instructions: 30000005 cycles: 38885721 heartbeat IPC: 0.3319 cumulative IPC: 0.3319 (Simulation time: 00 hr 03 min 40 sec)
Heartbeat CPU 0 instructions: 40000005 cycles: 68476431 heartbeat IPC: 0.3379 cumulative IPC: 0.3349 (Simulation time: 00 hr 05 min 38 sec)
Heartbeat CPU 0 instructions: 50000007 cycles: 98464102 heartbeat IPC: 0.3335 cumulative IPC: 0.3344 (Simulation time: 00 hr 07 min 33 sec)
Heartbeat CPU 0 instructions: 60000007 cycles: 128162790 heartbeat IPC: 0.3367 cumulative IPC: 0.335 (Simulation time: 00 hr 09 min 27 sec)
Simulation finished CPU 0 instructions: 50000000 cycles: 149266175 cumulative IPC: 0.335 (Simulation time: 00 hr 11 min 22 sec)
Simulation complete CPU 0 instructions: 50000000 cycles: 149266175 cumulative IPC: 0.335 (Simulation time: 00 hr 11 min 22 sec)

ChampSim completed all CPUs

=== Simulation ===
CPU 0 runs traces/605.mcf_s-1152B.champsimtrace.xz

Region of Interest Statistics

CPU 0 cumulative IPC: 0.335 instructions: 50000000 cycles: 149266175
CPU 0 Branch Prediction Accuracy: 90.19% MPKI: 24.48 Average ROB Occupancy at Mispredict: 21.54
Branch type MPKI
BRANCH_DIRECT_JUMP: 0.2057
BRANCH_INDIRECT: 0
BRANCH_CONDITIONAL: 24.27
BRANCH_DIRECT_CALL: 0
BRANCH_INDIRECT_CALL: 0.0036
BRANCH_RETURN: 2e-05

cpu0->cpu0_STLB TOTAL        ACCESS:    1006142 HIT:    1000385 MISS:       5757 MSHR_MERGE:          0
cpu0->cpu0_STLB LOAD         ACCESS:    1006142 HIT:    1000385 MISS:       5757 MSHR_MERGE:          0
cpu0->cpu0_STLB RFO          ACCESS:          0 HIT:          0 MISS:          0 MSHR_MERGE:          0
cpu0->cpu0_STLB PREFETCH     ACCESS:          0 HIT:          0 MISS:          0 MSHR_MERGE:          0
cpu0->cpu0_STLB WRITE        ACCESS:          0 HIT:          0 MISS:          0 MSHR_MERGE:          0
cpu0->cpu0_STLB TRANSLATION  ACCESS:          0 HIT:          0 MISS:          0 MSHR_MERGE:          0
cpu0->cpu0_STLB PREFETCH REQUESTED:          0 ISSUED:          0 USEFUL:          0 USELESS:          0
cpu0->cpu0_STLB AVERAGE MISS LATENCY: 629.2 cycles
cpu0->cpu0_L2C TOTAL        ACCESS:    9344854 HIT:    3538908 MISS:    5805946 MSHR_MERGE:     209011
cpu0->cpu0_L2C LOAD         ACCESS:    2552721 HIT:    1090872 MISS:    1461849 MSHR_MERGE:      41191
cpu0->cpu0_L2C RFO          ACCESS:     187384 HIT:      24115 MISS:     163269 MSHR_MERGE:          0
cpu0->cpu0_L2C PREFETCH     ACCESS:    6330642 HIT:    2161645 MISS:    4168997 MSHR_MERGE:     167820
cpu0->cpu0_L2C WRITE        ACCESS:     265754 HIT:     260846 MISS:       4908 MSHR_MERGE:          0
cpu0->cpu0_L2C TRANSLATION  ACCESS:       8353 HIT:       1430 MISS:       6923 MSHR_MERGE:          0
cpu0->cpu0_L2C PREFETCH REQUESTED:    6331602 ISSUED:    6330644 USEFUL:     831298 USELESS:    3169222
cpu0->cpu0_L2C AVERAGE MISS LATENCY: 56.97 cycles
cpu0->cpu0_L1I TOTAL        ACCESS:     448522 HIT:     448522 MISS:          0 MSHR_MERGE:          0
cpu0->cpu0_L1I LOAD         ACCESS:     448522 HIT:     448522 MISS:          0 MSHR_MERGE:          0
cpu0->cpu0_L1I RFO          ACCESS:          0 HIT:          0 MISS:          0 MSHR_MERGE:          0
cpu0->cpu0_L1I PREFETCH     ACCESS:          0 HIT:          0 MISS:          0 MSHR_MERGE:          0
cpu0->cpu0_L1I WRITE        ACCESS:          0 HIT:          0 MISS:          0 MSHR_MERGE:          0
cpu0->cpu0_L1I TRANSLATION  ACCESS:          0 HIT:          0 MISS:          0 MSHR_MERGE:          0
cpu0->cpu0_L1I PREFETCH REQUESTED:          0 ISSUED:          0 USEFUL:          0 USELESS:          0
cpu0->cpu0_L1I AVERAGE MISS LATENCY: - cycles
cpu0->cpu0_L1D TOTAL        ACCESS:   17980147 HIT:   14387366 MISS:    3592781 MSHR_MERGE:     844319
cpu0->cpu0_L1D LOAD         ACCESS:   12803971 HIT:    9719969 MISS:    3084002 MSHR_MERGE:     531280
cpu0->cpu0_L1D RFO          ACCESS:          0 HIT:          0 MISS:          0 MSHR_MERGE:          0
cpu0->cpu0_L1D PREFETCH     ACCESS:          0 HIT:          0 MISS:          0 MSHR_MERGE:          0
cpu0->cpu0_L1D WRITE        ACCESS:    5164566 HIT:    4664140 MISS:     500426 MSHR_MERGE:     313039
cpu0->cpu0_L1D TRANSLATION  ACCESS:      11610 HIT:       3257 MISS:       8353 MSHR_MERGE:          0
cpu0->cpu0_L1D PREFETCH REQUESTED:          0 ISSUED:          0 USEFUL:          0 USELESS:          0
cpu0->cpu0_L1D AVERAGE MISS LATENCY: 43.23 cycles
cpu0->cpu0_ITLB TOTAL        ACCESS:     410902 HIT:     410902 MISS:          0 MSHR_MERGE:          0
cpu0->cpu0_ITLB LOAD         ACCESS:     410902 HIT:     410902 MISS:          0 MSHR_MERGE:          0
cpu0->cpu0_ITLB RFO          ACCESS:          0 HIT:          0 MISS:          0 MSHR_MERGE:          0
cpu0->cpu0_ITLB PREFETCH     ACCESS:          0 HIT:          0 MISS:          0 MSHR_MERGE:          0
cpu0->cpu0_ITLB WRITE        ACCESS:          0 HIT:          0 MISS:          0 MSHR_MERGE:          0
cpu0->cpu0_ITLB TRANSLATION  ACCESS:          0 HIT:          0 MISS:          0 MSHR_MERGE:          0
cpu0->cpu0_ITLB PREFETCH REQUESTED:          0 ISSUED:          0 USEFUL:          0 USELESS:          0
cpu0->cpu0_ITLB AVERAGE MISS LATENCY: - cycles
cpu0->cpu0_DTLB TOTAL        ACCESS:   16840624 HIT:   15647020 MISS:    1193604 MSHR_MERGE:     187462
cpu0->cpu0_DTLB LOAD         ACCESS:   16840624 HIT:   15647020 MISS:    1193604 MSHR_MERGE:     187462
cpu0->cpu0_DTLB RFO          ACCESS:          0 HIT:          0 MISS:          0 MSHR_MERGE:          0
cpu0->cpu0_DTLB PREFETCH     ACCESS:          0 HIT:          0 MISS:          0 MSHR_MERGE:          0
cpu0->cpu0_DTLB WRITE        ACCESS:          0 HIT:          0 MISS:          0 MSHR_MERGE:          0
cpu0->cpu0_DTLB TRANSLATION  ACCESS:          0 HIT:          0 MISS:          0 MSHR_MERGE:          0
cpu0->cpu0_DTLB PREFETCH REQUESTED:          0 ISSUED:          0 USEFUL:          0 USELESS:          0
cpu0->cpu0_DTLB AVERAGE MISS LATENCY: 7.606 cycles
cpu0->LLC TOTAL        ACCESS:    5815411 HIT:    3269691 MISS:    2545720 MSHR_MERGE:          0
cpu0->LLC LOAD         ACCESS:    1420658 HIT:    1026152 MISS:     394506 MSHR_MERGE:          0
cpu0->LLC RFO          ACCESS:     163269 HIT:     152316 MISS:      10953 MSHR_MERGE:          0
cpu0->LLC PREFETCH     ACCESS:    4001175 HIT:    1879877 MISS:    2121298 MSHR_MERGE:          0
cpu0->LLC WRITE        ACCESS:     223386 HIT:     211306 MISS:      12080 MSHR_MERGE:          0
cpu0->LLC TRANSLATION  ACCESS:       6923 HIT:         40 MISS:       6883 MSHR_MERGE:          0
cpu0->LLC PREFETCH REQUESTED:          0 ISSUED:          0 USEFUL:          0 USELESS:          0
cpu0->LLC AVERAGE MISS LATENCY: 151.7 cycles

DRAM Statistics

Channel 0 RQ ROW_BUFFER_HIT:      82837
  ROW_BUFFER_MISS:    2450666
  AVG DBUS CONGESTED CYCLE: 11.93
Channel 0 WQ ROW_BUFFER_HIT:       4460
  ROW_BUFFER_MISS:      14642
  FULL:          0
Channel 0 REFRESHES ISSUED:      12439
