[VMEM] WARNING: physical memory size is smaller than virtual memory size.
WARNING: option --warmup_instructions is deprecated. Use --warmup-instructions instead.
WARNING: option --simulation_instructions is deprecated. Use --simulation-instructions instead.

*** ChampSim Multicore Out-of-Order Simulator ***
Warmup Instructions: 20000000
Simulation Instructions: 50000000
Number of CPUs: 1
Page size: 8192

Off-chip DRAM Size: 16 GiB Channels: 1 Width: 64-bit Data Rate: 3205 MT/s
Heartbeat CPU 0 instructions: 10000001 cycles: 4633169 heartbeat IPC: 2.158 cumulative IPC: 2.158 (Simulation time: 00 hr 00 min 45 sec)
Heartbeat CPU 0 instructions: 20000002 cycles: 9212623 heartbeat IPC: 2.184 cumulative IPC: 2.171 (Simulation time: 00 hr 01 min 30 sec)
Warmup finished CPU 0 instructions: 20000002 cycles: 9212623 cumulative IPC: 2.171 (Simulation time: 00 hr 01 min 30 sec)
Warmup complete CPU 0 instructions: 20000002 cycles: 9212623 cumulative IPC: 2.171 (Simulation time: 00 hr 01 min 30 sec)
Heartbeat CPU 0 instructions: 30000005 cycles: 44019866 heartbeat IPC: 0.2873 cumulative IPC: 0.2873 (Simulation time: 00 hr 03 min 47 sec)
Heartbeat CPU 0 instructions: 40000005 cycles: 78622150 heartbeat IPC: 0.289 cumulative IPC: 0.2881 (Simulation time: 00 hr 06 min 00 sec)
Heartbeat CPU 0 instructions: 50000007 cycles: 113509674 heartbeat IPC: 0.2866 cumulative IPC: 0.2876 (Simulation time: 00 hr 08 min 14 sec)
Heartbeat CPU 0 instructions: 60000007 cycles: 148333263 heartbeat IPC: 0.2872 cumulative IPC: 0.2875 (Simulation time: 00 hr 10 min 28 sec)
Simulation finished CPU 0 instructions: 50000002 cycles: 174231818 cumulative IPC: 0.287 (Simulation time: 00 hr 12 min 43 sec)
Simulation complete CPU 0 instructions: 50000002 cycles: 174231818 cumulative IPC: 0.287 (Simulation time: 00 hr 12 min 43 sec)

ChampSim completed all CPUs

=== Simulation ===
CPU 0 runs traces/605.mcf_s-1152B.champsimtrace.xz

Region of Interest Statistics

CPU 0 cumulative IPC: 0.287 instructions: 50000002 cycles: 174231818
CPU 0 Branch Prediction Accuracy: 90.19% MPKI: 24.48 Average ROB Occupancy at Mispredict: 21.42
Branch type MPKI
BRANCH_DIRECT_JUMP: 0.2057
BRANCH_INDIRECT: 0
BRANCH_CONDITIONAL: 24.27
BRANCH_DIRECT_CALL: 0
BRANCH_INDIRECT_CALL: 0.0036
BRANCH_RETURN: 2e-05

cpu0->cpu0_STLB TOTAL        ACCESS:    1006120 HIT:    1000363 MISS:       5757 MSHR_MERGE:          0
cpu0->cpu0_STLB LOAD         ACCESS:    1006120 HIT:    1000363 MISS:       5757 MSHR_MERGE:          0
cpu0->cpu0_STLB RFO          ACCESS:          0 HIT:          0 MISS:          0 MSHR_MERGE:          0
cpu0->cpu0_STLB PREFETCH     ACCESS:          0 HIT:          0 MISS:          0 MSHR_MERGE:          0
cpu0->cpu0_STLB WRITE        ACCESS:          0 HIT:          0 MISS:          0 MSHR_MERGE:          0
cpu0->cpu0_STLB TRANSLATION  ACCESS:          0 HIT:          0 MISS:          0 MSHR_MERGE:          0
cpu0->cpu0_STLB PREFETCH REQUESTED:          0 ISSUED:          0 USEFUL:          0 USELESS:          0
cpu0->cpu0_STLB AVERAGE MISS LATENCY: 724.8 cycles
cpu0->cpu0_L2C TOTAL        ACCESS:    9284764 HIT:    3473380 MISS:    5811384 MSHR_MERGE:     270087
cpu0->cpu0_L2C LOAD         ACCESS:    2552729 HIT:    1089755 MISS:    1462974 MSHR_MERGE:      42299
cpu0->cpu0_L2C RFO          ACCESS:     187384 HIT:      25219 MISS:     162165 MSHR_MERGE:          0
cpu0->cpu0_L2C PREFETCH     ACCESS:    6270556 HIT:    2094365 MISS:    4176191 MSHR_MERGE:     227788
cpu0->cpu0_L2C WRITE        ACCESS:     265746 HIT:     262612 MISS:       3134 MSHR_MERGE:          0
cpu0->cpu0_L2C TRANSLATION  ACCESS:       8349 HIT:       1429 MISS:       6920 MSHR_MERGE:          0
cpu0->cpu0_L2C PREFETCH REQUESTED:    6271396 ISSUED:    6270557 USEFUL:     823355 USELESS:    3124666
cpu0->cpu0_L2C AVERAGE MISS LATENCY: 76.76 cycles
cpu0->cpu0_L1I TOTAL        ACCESS:     435340 HIT:     435340 MISS:          0 MSHR_MERGE:          0
cpu0->cpu0_L1I LOAD         ACCESS:     435340 HIT:     435340 MISS:          0 MSHR_MERGE:          0
cpu0->cpu0_L1I RFO          ACCESS:          0 HIT:          0 MISS:          0 MSHR_MERGE:          0
cpu0->cpu0_L1I PREFETCH     ACCESS:          0 HIT:          0 MISS:          0 MSHR_MERGE:          0
cpu0->cpu0_L1I WRITE        ACCESS:          0 HIT:          0 MISS:          0 MSHR_MERGE:          0
cpu0->cpu0_L1I TRANSLATION  ACCESS:          0 HIT:          0 MISS:          0 MSHR_MERGE:          0
cpu0->cpu0_L1I PREFETCH REQUESTED:          0 ISSUED:          0 USEFUL:          0 USELESS:          0
cpu0->cpu0_L1I AVERAGE MISS LATENCY: - cycles
cpu0->cpu0_L1D TOTAL        ACCESS:   17980401 HIT:   14381014 MISS:    3599387 MSHR_MERGE:     850920
cpu0->cpu0_L1D LOAD         ACCESS:   12804465 HIT:    9719637 MISS:    3084828 MSHR_MERGE:     532098
cpu0->cpu0_L1D RFO          ACCESS:          0 HIT:          0 MISS:          0 MSHR_MERGE:          0
cpu0->cpu0_L1D PREFETCH     ACCESS:          0 HIT:          0 MISS:          0 MSHR_MERGE:          0
cpu0->cpu0_L1D WRITE        ACCESS:    5164326 HIT:    4658116 MISS:     506210 MSHR_MERGE:     318822
cpu0->cpu0_L1D TRANSLATION  ACCESS:      11610 HIT:       3261 MISS:       8349 MSHR_MERGE:          0
cpu0->cpu0_L1D PREFETCH REQUESTED:          0 ISSUED:          0 USEFUL:          0 USELESS:          0
cpu0->cpu0_L1D AVERAGE MISS LATENCY: 55.38 cycles
cpu0->cpu0_ITLB TOTAL        ACCESS:     403516 HIT:     403516 MISS:          0 MSHR_MERGE:          0
cpu0->cpu0_ITLB LOAD         ACCESS:     403516 HIT:     403516 MISS:          0 MSHR_MERGE:          0
cpu0->cpu0_ITLB RFO          ACCESS:          0 HIT:          0 MISS:          0 MSHR_MERGE:          0
cpu0->cpu0_ITLB PREFETCH     ACCESS:          0 HIT:          0 MISS:          0 MSHR_MERGE:          0
cpu0->cpu0_ITLB WRITE        ACCESS:          0 HIT:          0 MISS:          0 MSHR_MERGE:          0
cpu0->cpu0_ITLB TRANSLATION  ACCESS:          0 HIT:          0 MISS:          0 MSHR_MERGE:          0
cpu0->cpu0_ITLB PREFETCH REQUESTED:          0 ISSUED:          0 USEFUL:          0 USELESS:          0
cpu0->cpu0_ITLB AVERAGE MISS LATENCY: - cycles
cpu0->cpu0_DTLB TOTAL        ACCESS:   16840823 HIT:   15647833 MISS:    1192990 MSHR_MERGE:     186870
cpu0->cpu0_DTLB LOAD         ACCESS:   16840823 HIT:   15647833 MISS:    1192990 MSHR_MERGE:     186870
cpu0->cpu0_DTLB RFO          ACCESS:          0 HIT:          0 MISS:          0 MSHR_MERGE:          0
cpu0->cpu0_DTLB PREFETCH     ACCESS:          0 HIT:          0 MISS:          0 MSHR_MERGE:          0
cpu0->cpu0_DTLB WRITE        ACCESS:          0 HIT:          0 MISS:          0 MSHR_MERGE:          0
cpu0->cpu0_DTLB TRANSLATION  ACCESS:          0 HIT:          0 MISS:          0 MSHR_MERGE:          0
cpu0->cpu0_DTLB PREFETCH REQUESTED:          0 ISSUED:          0 USEFUL:          0 USELESS:          0
cpu0->cpu0_DTLB AVERAGE MISS LATENCY: 8.153 cycles
cpu0->LLC TOTAL        ACCESS:    5758863 HIT:    3216334 MISS:    2542529 MSHR_MERGE:          0
cpu0->LLC LOAD         ACCESS:    1420675 HIT:    1026942 MISS:     393733 MSHR_MERGE:          0
cpu0->LLC RFO          ACCESS:     162165 HIT:     149303 MISS:      12862 MSHR_MERGE:          0
cpu0->LLC PREFETCH     ACCESS:    3948401 HIT:    1833750 MISS:    2114651 MSHR_MERGE:          0
cpu0->LLC WRITE        ACCESS:     220702 HIT:     206302 MISS:      14400 MSHR_MERGE:          0
cpu0->LLC TRANSLATION  ACCESS:       6920 HIT:         37 MISS:       6883 MSHR_MERGE:          0
cpu0->LLC PREFETCH REQUESTED:          0 ISSUED:          0 USEFUL:          0 USELESS:          0
cpu0->LLC AVERAGE MISS LATENCY: 220.2 cycles

DRAM Statistics

Channel 0 RQ ROW_BUFFER_HIT:      74493
  ROW_BUFFER_MISS:    2453229
  AVG DBUS CONGESTED CYCLE: 17.94
Channel 0 WQ ROW_BUFFER_HIT:       7863
  ROW_BUFFER_MISS:      13839
  FULL:          0
Channel 0 REFRESHES ISSUED:      14520
