[VMEM] WARNING: physical memory size is smaller than virtual memory size.
WARNING: option --warmup_instructions is deprecated. Use --warmup-instructions instead.
WARNING: option --simulation_instructions is deprecated. Use --simulation-instructions instead.

*** ChampSim Multicore Out-of-Order Simulator ***
Warmup Instructions: 20000000
Simulation Instructions: 50000000
Number of CPUs: 1
Page size: 8192

Off-chip DRAM Size: 16 GiB Channels: 1 Width: 64-bit Data Rate: 3205 MT/s
Heartbeat CPU 0 instructions: 10000000 cycles: 6987513 heartbeat IPC: 1.431 cumulative IPC: 1.431 (Simulation time: 00 hr 00 min 58 sec)
Heartbeat CPU 0 instructions: 20000001 cycles: 11063447 heartbeat IPC: 2.453 cumulative IPC: 1.808 (Simulation time: 00 hr 01 min 41 sec)
Warmup finished CPU 0 instructions: 20000001 cycles: 11063447 cumulative IPC: 1.808 (Simulation time: 00 hr 01 min 41 sec)
Warmup complete CPU 0 instructions: 20000001 cycles: 11063447 cumulative IPC: 1.808 (Simulation time: 00 hr 01 min 41 sec)
Heartbeat CPU 0 instructions: 30000003 cycles: 74917372 heartbeat IPC: 0.1566 cumulative IPC: 0.1566 (Simulation time: 00 hr 06 min 51 sec)
Heartbeat CPU 0 instructions: 40000005 cycles: 140069236 heartbeat IPC: 0.1535 cumulative IPC: 0.155 (Simulation time: 00 hr 12 min 18 sec)
Heartbeat CPU 0 instructions: 50000006 cycles: 204911120 heartbeat IPC: 0.1542 cumulative IPC: 0.1548 (Simulation time: 00 hr 17 min 59 sec)
Heartbeat CPU 0 instructions: 60000007 cycles: 268366463 heartbeat IPC: 0.1576 cumulative IPC: 0.1555 (Simulation time: 00 hr 23 min 27 sec)
Simulation finished CPU 0 instructions: 50000002 cycles: 323766225 cumulative IPC: 0.1544 (Simulation time: 00 hr 29 min 01 sec)
Simulation complete CPU 0 instructions: 50000002 cycles: 323766225 cumulative IPC: 0.1544 (Simulation time: 00 hr 29 min 01 sec)

ChampSim completed all CPUs

=== Simulation ===
CPU 0 runs traces/473.astar-359B.champsimtrace.xz

Region of Interest Statistics

CPU 0 cumulative IPC: 0.1544 instructions: 50000002 cycles: 323766225
CPU 0 Branch Prediction Accuracy: 93.2% MPKI: 13.43 Average ROB Occupancy at Mispredict: 44.39
Branch type MPKI
BRANCH_DIRECT_JUMP: 0
BRANCH_INDIRECT: 0
BRANCH_CONDITIONAL: 13.42
BRANCH_DIRECT_CALL: 0
BRANCH_INDIRECT_CALL: 0.00054
BRANCH_RETURN: 0

cpu0->cpu0_STLB TOTAL        ACCESS:    1275595 HIT:     889339 MISS:     386256 MSHR_MERGE:          0
cpu0->cpu0_STLB LOAD         ACCESS:    1275595 HIT:     889339 MISS:     386256 MSHR_MERGE:          0
cpu0->cpu0_STLB RFO          ACCESS:          0 HIT:          0 MISS:          0 MSHR_MERGE:          0
cpu0->cpu0_STLB PREFETCH     ACCESS:          0 HIT:          0 MISS:          0 MSHR_MERGE:          0
cpu0->cpu0_STLB WRITE        ACCESS:          0 HIT:          0 MISS:          0 MSHR_MERGE:          0
cpu0->cpu0_STLB TRANSLATION  ACCESS:          0 HIT:          0 MISS:          0 MSHR_MERGE:          0
cpu0->cpu0_STLB PREFETCH REQUESTED:          0 ISSUED:          0 USEFUL:          0 USELESS:          0
cpu0->cpu0_STLB AVERAGE MISS LATENCY: 757.4 cycles
cpu0->cpu0_L2C TOTAL        ACCESS:    6132913 HIT:    2848628 MISS:    3284285 MSHR_MERGE:      72712
cpu0->cpu0_L2C LOAD         ACCESS:    1775433 HIT:     928801 MISS:     846632 MSHR_MERGE:      25954
cpu0->cpu0_L2C RFO          ACCESS:     767635 HIT:      40798 MISS:     726837 MSHR_MERGE:          0
cpu0->cpu0_L2C PREFETCH     ACCESS:    1771482 HIT:     704869 MISS:    1066613 MSHR_MERGE:      46758
cpu0->cpu0_L2C WRITE        ACCESS:    1168873 HIT:    1168436 MISS:        437 MSHR_MERGE:          0
cpu0->cpu0_L2C TRANSLATION  ACCESS:     649490 HIT:       5724 MISS:     643766 MSHR_MERGE:          0
cpu0->cpu0_L2C PREFETCH REQUESTED:    1771482 ISSUED:    1771482 USEFUL:     313645 USELESS:     707517
cpu0->cpu0_L2C AVERAGE MISS LATENCY: 321.3 cycles
cpu0->cpu0_L1I TOTAL        ACCESS:     832492 HIT:     832485 MISS:          7 MSHR_MERGE:          0
cpu0->cpu0_L1I LOAD         ACCESS:     832492 HIT:     832485 MISS:          7 MSHR_MERGE:          0
cpu0->cpu0_L1I RFO          ACCESS:          0 HIT:          0 MISS:          0 MSHR_MERGE:          0
cpu0->cpu0_L1I PREFETCH     ACCESS:          0 HIT:          0 MISS:          0 MSHR_MERGE:          0
cpu0->cpu0_L1I WRITE        ACCESS:          0 HIT:          0 MISS:          0 MSHR_MERGE:          0
cpu0->cpu0_L1I TRANSLATION  ACCESS:          0 HIT:          0 MISS:          0 MSHR_MERGE:          0
cpu0->cpu0_L1I PREFETCH REQUESTED:          0 ISSUED:          0 USEFUL:          0 USELESS:          0
cpu0->cpu0_L1I AVERAGE MISS LATENCY: 201.9 cycles
cpu0->cpu0_L1D TOTAL        ACCESS:   19857788 HIT:   15972930 MISS:    3884858 MSHR_MERGE:     692305
cpu0->cpu0_L1D LOAD         ACCESS:   12766306 HIT:   10392841 MISS:    2373465 MSHR_MERGE:     598037
cpu0->cpu0_L1D RFO          ACCESS:          0 HIT:          0 MISS:          0 MSHR_MERGE:          0
cpu0->cpu0_L1D PREFETCH     ACCESS:          0 HIT:          0 MISS:          0 MSHR_MERGE:          0
cpu0->cpu0_L1D WRITE        ACCESS:    6314521 HIT:    5546793 MISS:     767728 MSHR_MERGE:         93
cpu0->cpu0_L1D TRANSLATION  ACCESS:     776961 HIT:      33296 MISS:     743665 MSHR_MERGE:      94175
cpu0->cpu0_L1D PREFETCH REQUESTED:          0 ISSUED:          0 USEFUL:          0 USELESS:          0
cpu0->cpu0_L1D AVERAGE MISS LATENCY: 234 cycles
cpu0->cpu0_ITLB TOTAL        ACCESS:     830183 HIT:     830183 MISS:          0 MSHR_MERGE:          0
cpu0->cpu0_ITLB LOAD         ACCESS:     830183 HIT:     830183 MISS:          0 MSHR_MERGE:          0
cpu0->cpu0_ITLB RFO          ACCESS:          0 HIT:          0 MISS:          0 MSHR_MERGE:          0
cpu0->cpu0_ITLB PREFETCH     ACCESS:          0 HIT:          0 MISS:          0 MSHR_MERGE:          0
cpu0->cpu0_ITLB WRITE        ACCESS:          0 HIT:          0 MISS:          0 MSHR_MERGE:          0
cpu0->cpu0_ITLB TRANSLATION  ACCESS:          0 HIT:          0 MISS:          0 MSHR_MERGE:          0
cpu0->cpu0_ITLB PREFETCH REQUESTED:          0 ISSUED:          0 USEFUL:          0 USELESS:          0
cpu0->cpu0_ITLB AVERAGE MISS LATENCY: - cycles
cpu0->cpu0_DTLB TOTAL        ACCESS:   18148324 HIT:   16269322 MISS:    1879002 MSHR_MERGE:     603407
cpu0->cpu0_DTLB LOAD         ACCESS:   18148324 HIT:   16269322 MISS:    1879002 MSHR_MERGE:     603407
cpu0->cpu0_DTLB RFO          ACCESS:          0 HIT:          0 MISS:          0 MSHR_MERGE:          0
cpu0->cpu0_DTLB PREFETCH     ACCESS:          0 HIT:          0 MISS:          0 MSHR_MERGE:          0
cpu0->cpu0_DTLB WRITE        ACCESS:          0 HIT:          0 MISS:          0 MSHR_MERGE:          0
cpu0->cpu0_DTLB TRANSLATION  ACCESS:          0 HIT:          0 MISS:          0 MSHR_MERGE:          0
cpu0->cpu0_DTLB PREFETCH REQUESTED:          0 ISSUED:          0 USEFUL:          0 USELESS:          0
cpu0->cpu0_DTLB AVERAGE MISS LATENCY: 233.6 cycles
cpu0->LLC TOTAL        ACCESS:    4340563 HIT:    1070032 MISS:    3270531 MSHR_MERGE:          0
cpu0->LLC LOAD         ACCESS:     820676 HIT:     245360 MISS:     575316 MSHR_MERGE:          0
cpu0->LLC RFO          ACCESS:     726837 HIT:     226246 MISS:     500591 MSHR_MERGE:          0
cpu0->LLC PREFETCH     ACCESS:    1019855 HIT:     103966 MISS:     915889 MSHR_MERGE:          0
cpu0->LLC WRITE        ACCESS:    1129429 HIT:     424968 MISS:     704461 MSHR_MERGE:          0
cpu0->LLC TRANSLATION  ACCESS:     643766 HIT:      69492 MISS:     574274 MSHR_MERGE:          0
cpu0->LLC PREFETCH REQUESTED:          0 ISSUED:          0 USEFUL:          0 USELESS:          0
cpu0->LLC AVERAGE MISS LATENCY: 286.7 cycles

DRAM Statistics

Channel 0 RQ ROW_BUFFER_HIT:      72874
  ROW_BUFFER_MISS:    2488801
  AVG DBUS CONGESTED CYCLE: 26.33
Channel 0 WQ ROW_BUFFER_HIT:     130545
  ROW_BUFFER_MISS:     627229
  FULL:          0
Channel 0 REFRESHES ISSUED:      26981
