[VMEM] WARNING: physical memory size is smaller than virtual memory size.
WARNING: option --warmup_instructions is deprecated. Use --warmup-instructions instead.
WARNING: option --simulation_instructions is deprecated. Use --simulation-instructions instead.

*** ChampSim Multicore Out-of-Order Simulator ***
Warmup Instructions: 20000000
Simulation Instructions: 50000000
Number of CPUs: 1
Page size: 8192

Off-chip DRAM Size: 16 GiB Channels: 1 Width: 64-bit Data Rate: 3205 MT/s
Heartbeat CPU 0 instructions: 10000000 cycles: 4302885 heartbeat IPC: 2.324 cumulative IPC: 2.324 (Simulation time: 00 hr 00 min 40 sec)
Heartbeat CPU 0 instructions: 20000000 cycles: 8598267 heartbeat IPC: 2.328 cumulative IPC: 2.326 (Simulation time: 00 hr 01 min 21 sec)
Warmup finished CPU 0 instructions: 20000000 cycles: 8598267 cumulative IPC: 2.326 (Simulation time: 00 hr 01 min 21 sec)
Warmup complete CPU 0 instructions: 20000000 cycles: 8598267 cumulative IPC: 2.326 (Simulation time: 00 hr 01 min 21 sec)
Heartbeat CPU 0 instructions: 30000002 cycles: 17973349 heartbeat IPC: 1.067 cumulative IPC: 1.067 (Simulation time: 00 hr 02 min 27 sec)
Heartbeat CPU 0 instructions: 40000003 cycles: 27248938 heartbeat IPC: 1.078 cumulative IPC: 1.072 (Simulation time: 00 hr 03 min 33 sec)
Heartbeat CPU 0 instructions: 50000003 cycles: 36566555 heartbeat IPC: 1.073 cumulative IPC: 1.073 (Simulation time: 00 hr 04 min 38 sec)
Heartbeat CPU 0 instructions: 60000005 cycles: 45915438 heartbeat IPC: 1.07 cumulative IPC: 1.072 (Simulation time: 00 hr 05 min 44 sec)
Simulation finished CPU 0 instructions: 50000001 cycles: 46628529 cumulative IPC: 1.072 (Simulation time: 00 hr 06 min 50 sec)
Simulation complete CPU 0 instructions: 50000001 cycles: 46628529 cumulative IPC: 1.072 (Simulation time: 00 hr 06 min 50 sec)

ChampSim completed all CPUs

=== Simulation ===
CPU 0 runs traces/603.bwaves_s-1740B.champsimtrace.xz

Region of Interest Statistics

CPU 0 cumulative IPC: 1.072 instructions: 50000001 cycles: 46628529
CPU 0 Branch Prediction Accuracy: 99.97% MPKI: 0.00734 Average ROB Occupancy at Mispredict: 190
Branch type MPKI
BRANCH_DIRECT_JUMP: 0
BRANCH_INDIRECT: 0
BRANCH_CONDITIONAL: 0.00734
BRANCH_DIRECT_CALL: 0
BRANCH_INDIRECT_CALL: 0
BRANCH_RETURN: 0

cpu0->cpu0_STLB TOTAL        ACCESS:       7425 HIT:        365 MISS:       7060 MSHR_MERGE:          0
cpu0->cpu0_STLB LOAD         ACCESS:       7425 HIT:        365 MISS:       7060 MSHR_MERGE:          0
cpu0->cpu0_STLB RFO          ACCESS:          0 HIT:          0 MISS:          0 MSHR_MERGE:          0
cpu0->cpu0_STLB PREFETCH     ACCESS:          0 HIT:          0 MISS:          0 MSHR_MERGE:          0
cpu0->cpu0_STLB WRITE        ACCESS:          0 HIT:          0 MISS:          0 MSHR_MERGE:          0
cpu0->cpu0_STLB TRANSLATION  ACCESS:          0 HIT:          0 MISS:          0 MSHR_MERGE:          0
cpu0->cpu0_STLB PREFETCH REQUESTED:          0 ISSUED:          0 USEFUL:          0 USELESS:          0
cpu0->cpu0_STLB AVERAGE MISS LATENCY: 809 cycles
cpu0->cpu0_L2C TOTAL        ACCESS:    2972675 HIT:    1900368 MISS:    1072307 MSHR_MERGE:     103805
cpu0->cpu0_L2C LOAD         ACCESS:    1020322 HIT:     923744 MISS:      96578 MSHR_MERGE:      53228
cpu0->cpu0_L2C RFO          ACCESS:      32716 HIT:       8354 MISS:      24362 MSHR_MERGE:          0
cpu0->cpu0_L2C PREFETCH     ACCESS:    1869642 HIT:     928760 MISS:     940882 MSHR_MERGE:      50577
cpu0->cpu0_L2C WRITE        ACCESS:      36469 HIT:      36421 MISS:         48 MSHR_MERGE:          0
cpu0->cpu0_L2C TRANSLATION  ACCESS:      13526 HIT:       3089 MISS:      10437 MSHR_MERGE:          0
cpu0->cpu0_L2C PREFETCH REQUESTED:    1922573 ISSUED:    1869642 USEFUL:     889837 USELESS:        439
cpu0->cpu0_L2C AVERAGE MISS LATENCY: 230.2 cycles
cpu0->cpu0_L1I TOTAL        ACCESS:   12003321 HIT:   12003321 MISS:          0 MSHR_MERGE:          0
cpu0->cpu0_L1I LOAD         ACCESS:   12003321 HIT:   12003321 MISS:          0 MSHR_MERGE:          0
cpu0->cpu0_L1I RFO          ACCESS:          0 HIT:          0 MISS:          0 MSHR_MERGE:          0
cpu0->cpu0_L1I PREFETCH     ACCESS:          0 HIT:          0 MISS:          0 MSHR_MERGE:          0
cpu0->cpu0_L1I WRITE        ACCESS:          0 HIT:          0 MISS:          0 MSHR_MERGE:          0
cpu0->cpu0_L1I TRANSLATION  ACCESS:          0 HIT:          0 MISS:          0 MSHR_MERGE:          0
cpu0->cpu0_L1I PREFETCH REQUESTED:          0 ISSUED:          0 USEFUL:          0 USELESS:          0
cpu0->cpu0_L1I AVERAGE MISS LATENCY: - cycles
cpu0->cpu0_L1D TOTAL        ACCESS:   17011976 HIT:   15843017 MISS:    1168959 MSHR_MERGE:     102246
cpu0->cpu0_L1D LOAD         ACCESS:   14181219 HIT:   13104959 MISS:    1076260 MSHR_MERGE:      55872
cpu0->cpu0_L1D RFO          ACCESS:          0 HIT:          0 MISS:          0 MSHR_MERGE:          0
cpu0->cpu0_L1D PREFETCH     ACCESS:          0 HIT:          0 MISS:          0 MSHR_MERGE:          0
cpu0->cpu0_L1D WRITE        ACCESS:    2816699 HIT:    2737763 MISS:      78936 MSHR_MERGE:      46137
cpu0->cpu0_L1D TRANSLATION  ACCESS:      14058 HIT:        295 MISS:      13763 MSHR_MERGE:        237
cpu0->cpu0_L1D PREFETCH REQUESTED:          0 ISSUED:          0 USEFUL:          0 USELESS:          0
cpu0->cpu0_L1D AVERAGE MISS LATENCY: 55.63 cycles
cpu0->cpu0_ITLB TOTAL        ACCESS:   10869952 HIT:   10869952 MISS:          0 MSHR_MERGE:          0
cpu0->cpu0_ITLB LOAD         ACCESS:   10869952 HIT:   10869952 MISS:          0 MSHR_MERGE:          0
cpu0->cpu0_ITLB RFO          ACCESS:          0 HIT:          0 MISS:          0 MSHR_MERGE:          0
cpu0->cpu0_ITLB PREFETCH     ACCESS:          0 HIT:          0 MISS:          0 MSHR_MERGE:          0
cpu0->cpu0_ITLB WRITE        ACCESS:          0 HIT:          0 MISS:          0 MSHR_MERGE:          0
cpu0->cpu0_ITLB TRANSLATION  ACCESS:          0 HIT:          0 MISS:          0 MSHR_MERGE:          0
cpu0->cpu0_ITLB PREFETCH REQUESTED:          0 ISSUED:          0 USEFUL:          0 USELESS:          0
cpu0->cpu0_ITLB AVERAGE MISS LATENCY: - cycles
cpu0->cpu0_DTLB TOTAL        ACCESS:   16358470 HIT:   16345701 MISS:      12769 MSHR_MERGE:       5344
cpu0->cpu0_DTLB LOAD         ACCESS:   16358470 HIT:   16345701 MISS:      12769 MSHR_MERGE:       5344
cpu0->cpu0_DTLB RFO          ACCESS:          0 HIT:          0 MISS:          0 MSHR_MERGE:          0
cpu0->cpu0_DTLB PREFETCH     ACCESS:          0 HIT:          0 MISS:          0 MSHR_MERGE:          0
cpu0->cpu0_DTLB WRITE        ACCESS:          0 HIT:          0 MISS:          0 MSHR_MERGE:          0
cpu0->cpu0_DTLB TRANSLATION  ACCESS:          0 HIT:          0 MISS:          0 MSHR_MERGE:          0
cpu0->cpu0_DTLB PREFETCH REQUESTED:          0 ISSUED:          0 USEFUL:          0 USELESS:          0
cpu0->cpu0_DTLB AVERAGE MISS LATENCY: 774.2 cycles
cpu0->LLC TOTAL        ACCESS:     992980 HIT:       4842 MISS:     988138 MSHR_MERGE:          0
cpu0->LLC LOAD         ACCESS:      43350 HIT:        512 MISS:      42838 MSHR_MERGE:          0
cpu0->LLC RFO          ACCESS:      24362 HIT:          0 MISS:      24362 MSHR_MERGE:          0
cpu0->LLC PREFETCH     ACCESS:     890305 HIT:       1728 MISS:     888577 MSHR_MERGE:          0
cpu0->LLC WRITE        ACCESS:      24526 HIT:       2594 MISS:      21932 MSHR_MERGE:          0
cpu0->LLC TRANSLATION  ACCESS:      10437 HIT:          8 MISS:      10429 MSHR_MERGE:          0
cpu0->LLC PREFETCH REQUESTED:          0 ISSUED:          0 USEFUL:          0 USELESS:          0
cpu0->LLC AVERAGE MISS LATENCY: 202.8 cycles

DRAM Statistics

Channel 0 RQ ROW_BUFFER_HIT:        827
  ROW_BUFFER_MISS:     965380
  AVG DBUS CONGESTED CYCLE: 6.654
Channel 0 WQ ROW_BUFFER_HIT:       2722
  ROW_BUFFER_MISS:      21638
  FULL:          0
Channel 0 REFRESHES ISSUED:       3886
