[VMEM] WARNING: physical memory size is smaller than virtual memory size.
WARNING: option --warmup_instructions is deprecated. Use --warmup-instructions instead.
WARNING: option --simulation_instructions is deprecated. Use --simulation-instructions instead.

*** ChampSim Multicore Out-of-Order Simulator ***
Warmup Instructions: 20000000
Simulation Instructions: 50000000
Number of CPUs: 1
Page size: 8192

Off-chip DRAM Size: 16 GiB Channels: 1 Width: 64-bit Data Rate: 3205 MT/s
Heartbeat CPU 0 instructions: 10000002 cycles: 3304730 heartbeat IPC: 3.026 cumulative IPC: 3.026 (Simulation time: 00 hr 00 min 31 sec)
Warmup finished CPU 0 instructions: 20000001 cycles: 6596565 cumulative IPC: 3.032 (Simulation time: 00 hr 01 min 03 sec)
Warmup complete CPU 0 instructions: 20000001 cycles: 6596565 cumulative IPC: 3.032 (Simulation time: 00 hr 01 min 03 sec)
Heartbeat CPU 0 instructions: 20000002 cycles: 6596566 heartbeat IPC: 3.038 cumulative IPC: 1 (Simulation time: 00 hr 01 min 03 sec)
Heartbeat CPU 0 instructions: 30000002 cycles: 18128424 heartbeat IPC: 0.8672 cumulative IPC: 0.8672 (Simulation time: 00 hr 02 min 53 sec)
Heartbeat CPU 0 instructions: 40000002 cycles: 29202309 heartbeat IPC: 0.903 cumulative IPC: 0.8847 (Simulation time: 00 hr 04 min 39 sec)
Heartbeat CPU 0 instructions: 50000004 cycles: 40370950 heartbeat IPC: 0.8954 cumulative IPC: 0.8882 (Simulation time: 00 hr 06 min 22 sec)
Heartbeat CPU 0 instructions: 60000006 cycles: 51379797 heartbeat IPC: 0.9084 cumulative IPC: 0.8932 (Simulation time: 00 hr 08 min 06 sec)
Simulation finished CPU 0 instructions: 50000003 cycles: 55939436 cumulative IPC: 0.8938 (Simulation time: 00 hr 09 min 52 sec)
Simulation complete CPU 0 instructions: 50000003 cycles: 55939436 cumulative IPC: 0.8938 (Simulation time: 00 hr 09 min 52 sec)

ChampSim completed all CPUs

=== Simulation ===
CPU 0 runs traces/470.lbm-1274B.champsimtrace.xz

Region of Interest Statistics

CPU 0 cumulative IPC: 0.8938 instructions: 50000003 cycles: 55939436
CPU 0 Branch Prediction Accuracy: 99.79% MPKI: 0.02864 Average ROB Occupancy at Mispredict: 95.99
Branch type MPKI
BRANCH_DIRECT_JUMP: 0
BRANCH_INDIRECT: 0
BRANCH_CONDITIONAL: 0.02864
BRANCH_DIRECT_CALL: 0
BRANCH_INDIRECT_CALL: 0
BRANCH_RETURN: 0

cpu0->cpu0_STLB TOTAL        ACCESS:      11115 HIT:       5557 MISS:       5558 MSHR_MERGE:          0
cpu0->cpu0_STLB LOAD         ACCESS:      11115 HIT:       5557 MISS:       5558 MSHR_MERGE:          0
cpu0->cpu0_STLB RFO          ACCESS:          0 HIT:          0 MISS:          0 MSHR_MERGE:          0
cpu0->cpu0_STLB PREFETCH     ACCESS:          0 HIT:          0 MISS:          0 MSHR_MERGE:          0
cpu0->cpu0_STLB WRITE        ACCESS:          0 HIT:          0 MISS:          0 MSHR_MERGE:          0
cpu0->cpu0_STLB TRANSLATION  ACCESS:          0 HIT:          0 MISS:          0 MSHR_MERGE:          0
cpu0->cpu0_STLB PREFETCH REQUESTED:          0 ISSUED:          0 USEFUL:          0 USELESS:          0
cpu0->cpu0_STLB AVERAGE MISS LATENCY: 1321 cycles
cpu0->cpu0_L2C TOTAL        ACCESS:    5413568 HIT:    3343803 MISS:    2069765 MSHR_MERGE:     107656
cpu0->cpu0_L2C LOAD         ACCESS:     355732 HIT:     209399 MISS:     146333 MSHR_MERGE:       8778
cpu0->cpu0_L2C RFO          ACCESS:    1991889 HIT:     913918 MISS:    1077971 MSHR_MERGE:          0
cpu0->cpu0_L2C PREFETCH     ACCESS:    1062926 HIT:     226194 MISS:     836732 MSHR_MERGE:      98878
cpu0->cpu0_L2C WRITE        ACCESS:    1991893 HIT:    1991848 MISS:         45 MSHR_MERGE:          0
cpu0->cpu0_L2C TRANSLATION  ACCESS:      11128 HIT:       2444 MISS:       8684 MSHR_MERGE:          0
cpu0->cpu0_L2C PREFETCH REQUESTED:    2299812 ISSUED:    1062926 USEFUL:     218177 USELESS:          6
cpu0->cpu0_L2C AVERAGE MISS LATENCY: 517.5 cycles
cpu0->cpu0_L1I TOTAL        ACCESS:    9195476 HIT:    9195476 MISS:          0 MSHR_MERGE:          0
cpu0->cpu0_L1I LOAD         ACCESS:    9195476 HIT:    9195476 MISS:          0 MSHR_MERGE:          0
cpu0->cpu0_L1I RFO          ACCESS:          0 HIT:          0 MISS:          0 MSHR_MERGE:          0
cpu0->cpu0_L1I PREFETCH     ACCESS:          0 HIT:          0 MISS:          0 MSHR_MERGE:          0
cpu0->cpu0_L1I WRITE        ACCESS:          0 HIT:          0 MISS:          0 MSHR_MERGE:          0
cpu0->cpu0_L1I TRANSLATION  ACCESS:          0 HIT:          0 MISS:          0 MSHR_MERGE:          0
cpu0->cpu0_L1I PREFETCH REQUESTED:          0 ISSUED:          0 USEFUL:          0 USELESS:          0
cpu0->cpu0_L1I AVERAGE MISS LATENCY: - cycles
cpu0->cpu0_L1D TOTAL        ACCESS:    7705328 HIT:    5287467 MISS:    2417861 MSHR_MERGE:      59112
cpu0->cpu0_L1D LOAD         ACCESS:    2670681 HIT:    2307668 MISS:     363013 MSHR_MERGE:       7281
cpu0->cpu0_L1D RFO          ACCESS:          0 HIT:          0 MISS:          0 MSHR_MERGE:          0
cpu0->cpu0_L1D PREFETCH     ACCESS:          0 HIT:          0 MISS:          0 MSHR_MERGE:          0
cpu0->cpu0_L1D WRITE        ACCESS:    5023519 HIT:    2979799 MISS:    2043720 MSHR_MERGE:      51831
cpu0->cpu0_L1D TRANSLATION  ACCESS:      11128 HIT:          0 MISS:      11128 MSHR_MERGE:          0
cpu0->cpu0_L1D PREFETCH REQUESTED:          0 ISSUED:          0 USEFUL:          0 USELESS:          0
cpu0->cpu0_L1D AVERAGE MISS LATENCY: 296.5 cycles
cpu0->cpu0_ITLB TOTAL        ACCESS:    7457832 HIT:    7457832 MISS:          0 MSHR_MERGE:          0
cpu0->cpu0_ITLB LOAD         ACCESS:    7457832 HIT:    7457832 MISS:          0 MSHR_MERGE:          0
cpu0->cpu0_ITLB RFO          ACCESS:          0 HIT:          0 MISS:          0 MSHR_MERGE:          0
cpu0->cpu0_ITLB PREFETCH     ACCESS:          0 HIT:          0 MISS:          0 MSHR_MERGE:          0
cpu0->cpu0_ITLB WRITE        ACCESS:          0 HIT:          0 MISS:          0 MSHR_MERGE:          0
cpu0->cpu0_ITLB TRANSLATION  ACCESS:          0 HIT:          0 MISS:          0 MSHR_MERGE:          0
cpu0->cpu0_ITLB PREFETCH REQUESTED:          0 ISSUED:          0 USEFUL:          0 USELESS:          0
cpu0->cpu0_ITLB AVERAGE MISS LATENCY: - cycles
cpu0->cpu0_DTLB TOTAL        ACCESS:    7291100 HIT:    7264285 MISS:      26815 MSHR_MERGE:      15700
cpu0->cpu0_DTLB LOAD         ACCESS:    7291100 HIT:    7264285 MISS:      26815 MSHR_MERGE:      15700
cpu0->cpu0_DTLB RFO          ACCESS:          0 HIT:          0 MISS:          0 MSHR_MERGE:          0
cpu0->cpu0_DTLB PREFETCH     ACCESS:          0 HIT:          0 MISS:          0 MSHR_MERGE:          0
cpu0->cpu0_DTLB WRITE        ACCESS:          0 HIT:          0 MISS:          0 MSHR_MERGE:          0
cpu0->cpu0_DTLB TRANSLATION  ACCESS:          0 HIT:          0 MISS:          0 MSHR_MERGE:          0
cpu0->cpu0_DTLB PREFETCH REQUESTED:          0 ISSUED:          0 USEFUL:          0 USELESS:          0
cpu0->cpu0_DTLB AVERAGE MISS LATENCY: 664.9 cycles
cpu0->LLC TOTAL        ACCESS:    3040230 HIT:     396332 MISS:    2643898 MSHR_MERGE:     193138
cpu0->LLC LOAD         ACCESS:     137555 HIT:      99641 MISS:      37914 MSHR_MERGE:       6038
cpu0->LLC RFO          ACCESS:    1077970 HIT:      20616 MISS:    1057354 MSHR_MERGE:          0
cpu0->LLC PREFETCH     ACCESS:     737854 HIT:     226831 MISS:     511023 MSHR_MERGE:     187100
cpu0->LLC WRITE        ACCESS:    1078167 HIT:      49244 MISS:    1028923 MSHR_MERGE:          0
cpu0->LLC TRANSLATION  ACCESS:       8684 HIT:          0 MISS:       8684 MSHR_MERGE:          0
cpu0->LLC PREFETCH REQUESTED:          0 ISSUED:          0 USEFUL:          0 USELESS:          0
cpu0->LLC AVERAGE MISS LATENCY: 292.5 cycles

DRAM Statistics

Channel 0 RQ ROW_BUFFER_HIT:      45830
  ROW_BUFFER_MISS:    1375841
  AVG DBUS CONGESTED CYCLE: 11.56
Channel 0 WQ ROW_BUFFER_HIT:     134843
  ROW_BUFFER_MISS:     941477
  FULL:       2619
Channel 0 REFRESHES ISSUED:       4662
