[VMEM] WARNING: physical memory size is smaller than virtual memory size.
WARNING: option --warmup_instructions is deprecated. Use --warmup-instructions instead.
WARNING: option --simulation_instructions is deprecated. Use --simulation-instructions instead.

*** ChampSim Multicore Out-of-Order Simulator ***
Warmup Instructions: 20000000
Simulation Instructions: 50000000
Number of CPUs: 1
Page size: 8192

Off-chip DRAM Size: 16 GiB Channels: 1 Width: 64-bit Data Rate: 3205 MT/s
Heartbeat CPU 0 instructions: 10000000 cycles: 8239515 heartbeat IPC: 1.214 cumulative IPC: 1.214 (Simulation time: 00 hr 01 min 23 sec)
Heartbeat CPU 0 instructions: 20000000 cycles: 15266791 heartbeat IPC: 1.423 cumulative IPC: 1.31 (Simulation time: 00 hr 02 min 37 sec)
Warmup finished CPU 0 instructions: 20000000 cycles: 15266791 cumulative IPC: 1.31 (Simulation time: 00 hr 02 min 37 sec)
Warmup complete CPU 0 instructions: 20000000 cycles: 15266791 cumulative IPC: 1.31 (Simulation time: 00 hr 02 min 37 sec)
Heartbeat CPU 0 instructions: 30000002 cycles: 52224102 heartbeat IPC: 0.2706 cumulative IPC: 0.2706 (Simulation time: 00 hr 06 min 13 sec)
Heartbeat CPU 0 instructions: 40000004 cycles: 89780924 heartbeat IPC: 0.2663 cumulative IPC: 0.2684 (Simulation time: 00 hr 09 min 53 sec)
Heartbeat CPU 0 instructions: 50000004 cycles: 127243391 heartbeat IPC: 0.2669 cumulative IPC: 0.2679 (Simulation time: 00 hr 13 min 31 sec)
Heartbeat CPU 0 instructions: 60000007 cycles: 162433436 heartbeat IPC: 0.2842 cumulative IPC: 0.2718 (Simulation time: 00 hr 16 min 58 sec)
Simulation finished CPU 0 instructions: 50000001 cycles: 181374928 cumulative IPC: 0.2757 (Simulation time: 00 hr 20 min 21 sec)
Simulation complete CPU 0 instructions: 50000001 cycles: 181374928 cumulative IPC: 0.2757 (Simulation time: 00 hr 20 min 21 sec)

ChampSim completed all CPUs

=== Simulation ===
CPU 0 runs traces/620.omnetpp_s-874B.champsimtrace.xz

Region of Interest Statistics

CPU 0 cumulative IPC: 0.2757 instructions: 50000001 cycles: 181374928
CPU 0 Branch Prediction Accuracy: 96.16% MPKI: 7.99 Average ROB Occupancy at Mispredict: 59.31
Branch type MPKI
BRANCH_DIRECT_JUMP: 0.9384
BRANCH_INDIRECT: 0.1208
BRANCH_CONDITIONAL: 5.805
BRANCH_DIRECT_CALL: 0.00236
BRANCH_INDIRECT_CALL: 0.7298
BRANCH_RETURN: 0.3936

cpu0->cpu0_STLB TOTAL        ACCESS:     828718 HIT:     691622 MISS:     137096 MSHR_MERGE:          0
cpu0->cpu0_STLB LOAD         ACCESS:     828718 HIT:     691622 MISS:     137096 MSHR_MERGE:          0
cpu0->cpu0_STLB RFO          ACCESS:          0 HIT:          0 MISS:          0 MSHR_MERGE:          0
cpu0->cpu0_STLB PREFETCH     ACCESS:          0 HIT:          0 MISS:          0 MSHR_MERGE:          0
cpu0->cpu0_STLB WRITE        ACCESS:          0 HIT:          0 MISS:          0 MSHR_MERGE:          0
cpu0->cpu0_STLB TRANSLATION  ACCESS:          0 HIT:          0 MISS:          0 MSHR_MERGE:          0
cpu0->cpu0_STLB PREFETCH REQUESTED:          0 ISSUED:          0 USEFUL:          0 USELESS:          0
cpu0->cpu0_STLB AVERAGE MISS LATENCY: 439.6 cycles
cpu0->cpu0_L2C TOTAL        ACCESS:    1873099 HIT:     838777 MISS:    1034322 MSHR_MERGE:          0
cpu0->cpu0_L2C LOAD         ACCESS:     933818 HIT:     278825 MISS:     654993 MSHR_MERGE:          0
cpu0->cpu0_L2C RFO          ACCESS:     139183 HIT:      32642 MISS:     106541 MSHR_MERGE:          0
cpu0->cpu0_L2C PREFETCH     ACCESS:          0 HIT:          0 MISS:          0 MSHR_MERGE:          0
cpu0->cpu0_L2C WRITE        ACCESS:     506823 HIT:     504609 MISS:       2214 MSHR_MERGE:          0
cpu0->cpu0_L2C TRANSLATION  ACCESS:     293275 HIT:      22701 MISS:     270574 MSHR_MERGE:          0
cpu0->cpu0_L2C PREFETCH REQUESTED:          0 ISSUED:          0 USEFUL:          0 USELESS:          0
cpu0->cpu0_L2C AVERAGE MISS LATENCY: 195.9 cycles
cpu0->cpu0_L1I TOTAL        ACCESS:    7918195 HIT:    7893165 MISS:      25030 MSHR_MERGE:       6536
cpu0->cpu0_L1I LOAD         ACCESS:    7918195 HIT:    7893165 MISS:      25030 MSHR_MERGE:       6536
cpu0->cpu0_L1I RFO          ACCESS:          0 HIT:          0 MISS:          0 MSHR_MERGE:          0
cpu0->cpu0_L1I PREFETCH     ACCESS:          0 HIT:          0 MISS:          0 MSHR_MERGE:          0
cpu0->cpu0_L1I WRITE        ACCESS:          0 HIT:          0 MISS:          0 MSHR_MERGE:          0
cpu0->cpu0_L1I TRANSLATION  ACCESS:          0 HIT:          0 MISS:          0 MSHR_MERGE:          0
cpu0->cpu0_L1I PREFETCH REQUESTED:          0 ISSUED:          0 USEFUL:          0 USELESS:          0
cpu0->cpu0_L1I AVERAGE MISS LATENCY: 33.56 cycles
cpu0->cpu0_L1D TOTAL        ACCESS:   18757101 HIT:   16946805 MISS:    1810296 MSHR_MERGE:     462509
cpu0->cpu0_L1D LOAD         ACCESS:    9417833 HIT:    8290305 MISS:    1127528 MSHR_MERGE:     212202
cpu0->cpu0_L1D RFO          ACCESS:          0 HIT:          0 MISS:          0 MSHR_MERGE:          0
cpu0->cpu0_L1D PREFETCH     ACCESS:          0 HIT:          0 MISS:          0 MSHR_MERGE:          0
cpu0->cpu0_L1D WRITE        ACCESS:    9038001 HIT:    8648810 MISS:     389191 MSHR_MERGE:     250005
cpu0->cpu0_L1D TRANSLATION  ACCESS:     301267 HIT:       7690 MISS:     293577 MSHR_MERGE:        302
cpu0->cpu0_L1D PREFETCH REQUESTED:          0 ISSUED:          0 USEFUL:          0 USELESS:          0
cpu0->cpu0_L1D AVERAGE MISS LATENCY: 158.7 cycles
cpu0->cpu0_ITLB TOTAL        ACCESS:    7260191 HIT:    7259987 MISS:        204 MSHR_MERGE:        100
cpu0->cpu0_ITLB LOAD         ACCESS:    7260191 HIT:    7259987 MISS:        204 MSHR_MERGE:        100
cpu0->cpu0_ITLB RFO          ACCESS:          0 HIT:          0 MISS:          0 MSHR_MERGE:          0
cpu0->cpu0_ITLB PREFETCH     ACCESS:          0 HIT:          0 MISS:          0 MSHR_MERGE:          0
cpu0->cpu0_ITLB WRITE        ACCESS:          0 HIT:          0 MISS:          0 MSHR_MERGE:          0
cpu0->cpu0_ITLB TRANSLATION  ACCESS:          0 HIT:          0 MISS:          0 MSHR_MERGE:          0
cpu0->cpu0_ITLB PREFETCH REQUESTED:          0 ISSUED:          0 USEFUL:          0 USELESS:          0
cpu0->cpu0_ITLB AVERAGE MISS LATENCY: 236.8 cycles
cpu0->cpu0_DTLB TOTAL        ACCESS:   17195622 HIT:   16245096 MISS:     950526 MSHR_MERGE:     121911
cpu0->cpu0_DTLB LOAD         ACCESS:   17195622 HIT:   16245096 MISS:     950526 MSHR_MERGE:     121911
cpu0->cpu0_DTLB RFO          ACCESS:          0 HIT:          0 MISS:          0 MSHR_MERGE:          0
cpu0->cpu0_DTLB PREFETCH     ACCESS:          0 HIT:          0 MISS:          0 MSHR_MERGE:          0
cpu0->cpu0_DTLB WRITE        ACCESS:          0 HIT:          0 MISS:          0 MSHR_MERGE:          0
cpu0->cpu0_DTLB TRANSLATION  ACCESS:          0 HIT:          0 MISS:          0 MSHR_MERGE:          0
cpu0->cpu0_DTLB PREFETCH REQUESTED:          0 ISSUED:          0 USEFUL:          0 USELESS:          0
cpu0->cpu0_DTLB AVERAGE MISS LATENCY: 76.87 cycles
cpu0->LLC TOTAL        ACCESS:    1411754 HIT:     336896 MISS:    1074858 MSHR_MERGE:          0
cpu0->LLC LOAD         ACCESS:     654993 HIT:     130054 MISS:     524939 MSHR_MERGE:          0
cpu0->LLC RFO          ACCESS:     106541 HIT:      23676 MISS:      82865 MSHR_MERGE:          0
cpu0->LLC PREFETCH     ACCESS:          0 HIT:          0 MISS:          0 MSHR_MERGE:          0
cpu0->LLC WRITE        ACCESS:     379646 HIT:     126222 MISS:     253424 MSHR_MERGE:          0
cpu0->LLC TRANSLATION  ACCESS:     270574 HIT:      56944 MISS:     213630 MSHR_MERGE:          0
cpu0->LLC PREFETCH REQUESTED:          0 ISSUED:          0 USEFUL:          0 USELESS:          0
cpu0->LLC AVERAGE MISS LATENCY: 174.5 cycles

DRAM Statistics

Channel 0 RQ ROW_BUFFER_HIT:      11527
  ROW_BUFFER_MISS:     809810
  AVG DBUS CONGESTED CYCLE: 34.16
Channel 0 WQ ROW_BUFFER_HIT:      85830
  ROW_BUFFER_MISS:     192602
  FULL:          0
Channel 0 REFRESHES ISSUED:      15114
