[VMEM] WARNING: physical memory size is smaller than virtual memory size.
WARNING: option --warmup_instructions is deprecated. Use --warmup-instructions instead.
WARNING: option --simulation_instructions is deprecated. Use --simulation-instructions instead.

*** ChampSim Multicore Out-of-Order Simulator ***
Warmup Instructions: 20000000
Simulation Instructions: 50000000
Number of CPUs: 1
Page size: 8192

Off-chip DRAM Size: 16 GiB Channels: 1 Width: 64-bit Data Rate: 3205 MT/s
Heartbeat CPU 0 instructions: 10000001 cycles: 2973697 heartbeat IPC: 3.363 cumulative IPC: 3.363 (Simulation time: 00 hr 00 min 35 sec)
Warmup finished CPU 0 instructions: 20000000 cycles: 5935533 cumulative IPC: 3.37 (Simulation time: 00 hr 01 min 12 sec)
Warmup complete CPU 0 instructions: 20000000 cycles: 5935533 cumulative IPC: 3.37 (Simulation time: 00 hr 01 min 12 sec)
Heartbeat CPU 0 instructions: 20000004 cycles: 5935534 heartbeat IPC: 3.376 cumulative IPC: 4 (Simulation time: 00 hr 01 min 12 sec)
Heartbeat CPU 0 instructions: 30000004 cycles: 25713342 heartbeat IPC: 0.5056 cumulative IPC: 0.5056 (Simulation time: 00 hr 03 min 50 sec)
Heartbeat CPU 0 instructions: 40000005 cycles: 45573945 heartbeat IPC: 0.5035 cumulative IPC: 0.5046 (Simulation time: 00 hr 06 min 31 sec)
Heartbeat CPU 0 instructions: 50000005 cycles: 65362122 heartbeat IPC: 0.5054 cumulative IPC: 0.5048 (Simulation time: 00 hr 09 min 11 sec)
Heartbeat CPU 0 instructions: 60000008 cycles: 85187977 heartbeat IPC: 0.5044 cumulative IPC: 0.5047 (Simulation time: 00 hr 11 min 49 sec)
Simulation finished CPU 0 instructions: 50000002 cycles: 99056645 cumulative IPC: 0.5048 (Simulation time: 00 hr 14 min 27 sec)
Simulation complete CPU 0 instructions: 50000002 cycles: 99056645 cumulative IPC: 0.5048 (Simulation time: 00 hr 14 min 27 sec)

ChampSim completed all CPUs

=== Simulation ===
CPU 0 runs traces/470.lbm-1274B.champsimtrace.xz

Region of Interest Statistics

CPU 0 cumulative IPC: 0.5048 instructions: 50000002 cycles: 99056645
CPU 0 Branch Prediction Accuracy: 99.79% MPKI: 0.02864 Average ROB Occupancy at Mispredict: 189.9
Branch type MPKI
BRANCH_DIRECT_JUMP: 0
BRANCH_INDIRECT: 0
BRANCH_CONDITIONAL: 0.02864
BRANCH_DIRECT_CALL: 0
BRANCH_INDIRECT_CALL: 0
BRANCH_RETURN: 0

cpu0->cpu0_STLB TOTAL        ACCESS:      11115 HIT:       5557 MISS:       5558 MSHR_MERGE:          0
cpu0->cpu0_STLB LOAD         ACCESS:      11115 HIT:       5557 MISS:       5558 MSHR_MERGE:          0
cpu0->cpu0_STLB RFO          ACCESS:          0 HIT:          0 MISS:          0 MSHR_MERGE:          0
cpu0->cpu0_STLB PREFETCH     ACCESS:          0 HIT:          0 MISS:          0 MSHR_MERGE:          0
cpu0->cpu0_STLB WRITE        ACCESS:          0 HIT:          0 MISS:          0 MSHR_MERGE:          0
cpu0->cpu0_STLB TRANSLATION  ACCESS:          0 HIT:          0 MISS:          0 MSHR_MERGE:          0
cpu0->cpu0_STLB PREFETCH REQUESTED:          0 ISSUED:          0 USEFUL:          0 USELESS:          0
cpu0->cpu0_STLB AVERAGE MISS LATENCY: 1182 cycles
cpu0->cpu0_L2C TOTAL        ACCESS:    4372353 HIT:    2931123 MISS:    1441230 MSHR_MERGE:          0
cpu0->cpu0_L2C LOAD         ACCESS:     355730 HIT:          0 MISS:     355730 MSHR_MERGE:          0
cpu0->cpu0_L2C RFO          ACCESS:    2002730 HIT:     925929 MISS:    1076801 MSHR_MERGE:          0
cpu0->cpu0_L2C PREFETCH     ACCESS:          0 HIT:          0 MISS:          0 MSHR_MERGE:          0
cpu0->cpu0_L2C WRITE        ACCESS:    2002765 HIT:    2002750 MISS:         15 MSHR_MERGE:          0
cpu0->cpu0_L2C TRANSLATION  ACCESS:      11128 HIT:       2444 MISS:       8684 MSHR_MERGE:          0
cpu0->cpu0_L2C PREFETCH REQUESTED:          0 ISSUED:          0 USEFUL:          0 USELESS:          0
cpu0->cpu0_L2C AVERAGE MISS LATENCY: 481.9 cycles
cpu0->cpu0_L1I TOTAL        ACCESS:    8545238 HIT:    8545238 MISS:          0 MSHR_MERGE:          0
cpu0->cpu0_L1I LOAD         ACCESS:    8545238 HIT:    8545238 MISS:          0 MSHR_MERGE:          0
cpu0->cpu0_L1I RFO          ACCESS:          0 HIT:          0 MISS:          0 MSHR_MERGE:          0
cpu0->cpu0_L1I PREFETCH     ACCESS:          0 HIT:          0 MISS:          0 MSHR_MERGE:          0
cpu0->cpu0_L1I WRITE        ACCESS:          0 HIT:          0 MISS:          0 MSHR_MERGE:          0
cpu0->cpu0_L1I TRANSLATION  ACCESS:          0 HIT:          0 MISS:          0 MSHR_MERGE:          0
cpu0->cpu0_L1I PREFETCH REQUESTED:          0 ISSUED:          0 USEFUL:          0 USELESS:          0
cpu0->cpu0_L1I AVERAGE MISS LATENCY: - cycles
cpu0->cpu0_L1D TOTAL        ACCESS:    7293576 HIT:    4798559 MISS:    2495017 MSHR_MERGE:     125395
cpu0->cpu0_L1D LOAD         ACCESS:    2258929 HIT:    1800840 MISS:     458089 MSHR_MERGE:     102359
cpu0->cpu0_L1D RFO          ACCESS:          0 HIT:          0 MISS:          0 MSHR_MERGE:          0
cpu0->cpu0_L1D PREFETCH     ACCESS:          0 HIT:          0 MISS:          0 MSHR_MERGE:          0
cpu0->cpu0_L1D WRITE        ACCESS:    5023519 HIT:    2997719 MISS:    2025800 MSHR_MERGE:      23036
cpu0->cpu0_L1D TRANSLATION  ACCESS:      11128 HIT:          0 MISS:      11128 MSHR_MERGE:          0
cpu0->cpu0_L1D PREFETCH REQUESTED:          0 ISSUED:          0 USEFUL:          0 USELESS:          0
cpu0->cpu0_L1D AVERAGE MISS LATENCY: 301.9 cycles
cpu0->cpu0_ITLB TOTAL        ACCESS:    7090256 HIT:    7090256 MISS:          0 MSHR_MERGE:          0
cpu0->cpu0_ITLB LOAD         ACCESS:    7090256 HIT:    7090256 MISS:          0 MSHR_MERGE:          0
cpu0->cpu0_ITLB RFO          ACCESS:          0 HIT:          0 MISS:          0 MSHR_MERGE:          0
cpu0->cpu0_ITLB PREFETCH     ACCESS:          0 HIT:          0 MISS:          0 MSHR_MERGE:          0
cpu0->cpu0_ITLB WRITE        ACCESS:          0 HIT:          0 MISS:          0 MSHR_MERGE:          0
cpu0->cpu0_ITLB TRANSLATION  ACCESS:          0 HIT:          0 MISS:          0 MSHR_MERGE:          0
cpu0->cpu0_ITLB PREFETCH REQUESTED:          0 ISSUED:          0 USEFUL:          0 USELESS:          0
cpu0->cpu0_ITLB AVERAGE MISS LATENCY: - cycles
cpu0->cpu0_DTLB TOTAL        ACCESS:    6788468 HIT:    6768803 MISS:      19665 MSHR_MERGE:       8550
cpu0->cpu0_DTLB LOAD         ACCESS:    6788468 HIT:    6768803 MISS:      19665 MSHR_MERGE:       8550
cpu0->cpu0_DTLB RFO          ACCESS:          0 HIT:          0 MISS:          0 MSHR_MERGE:          0
cpu0->cpu0_DTLB PREFETCH     ACCESS:          0 HIT:          0 MISS:          0 MSHR_MERGE:          0
cpu0->cpu0_DTLB WRITE        ACCESS:          0 HIT:          0 MISS:          0 MSHR_MERGE:          0
cpu0->cpu0_DTLB TRANSLATION  ACCESS:          0 HIT:          0 MISS:          0 MSHR_MERGE:          0
cpu0->cpu0_DTLB PREFETCH REQUESTED:          0 ISSUED:          0 USEFUL:          0 USELESS:          0
cpu0->cpu0_DTLB AVERAGE MISS LATENCY: 595.5 cycles
cpu0->LLC TOTAL        ACCESS:    2518338 HIT:      66426 MISS:    2451912 MSHR_MERGE:          0
cpu0->LLC LOAD         ACCESS:     355730 HIT:          0 MISS:     355730 MSHR_MERGE:          0
cpu0->LLC RFO          ACCESS:    1076801 HIT:      19226 MISS:    1057575 MSHR_MERGE:          0
cpu0->LLC PREFETCH     ACCESS:          0 HIT:          0 MISS:          0 MSHR_MERGE:          0
cpu0->LLC WRITE        ACCESS:    1077123 HIT:      47200 MISS:    1029923 MSHR_MERGE:          0
cpu0->LLC TRANSLATION  ACCESS:       8684 HIT:          0 MISS:       8684 MSHR_MERGE:          0
cpu0->LLC PREFETCH REQUESTED:          0 ISSUED:          0 USEFUL:          0 USELESS:          0
cpu0->LLC AVERAGE MISS LATENCY: 277 cycles

DRAM Statistics

Channel 0 RQ ROW_BUFFER_HIT:      20567
  ROW_BUFFER_MISS:    1401359
  AVG DBUS CONGESTED CYCLE: 22.42
Channel 0 WQ ROW_BUFFER_HIT:     196399
  ROW_BUFFER_MISS:     858283
  FULL:          0
Channel 0 REFRESHES ISSUED:       8255
