[VMEM] WARNING: physical memory size is smaller than virtual memory size.
WARNING: option --warmup_instructions is deprecated. Use --warmup-instructions instead.
WARNING: option --simulation_instructions is deprecated. Use --simulation-instructions instead.

*** ChampSim Multicore Out-of-Order Simulator ***
Warmup Instructions: 20000000
Simulation Instructions: 50000000
Number of CPUs: 1
Page size: 8192

Off-chip DRAM Size: 16 GiB Channels: 1 Width: 64-bit Data Rate: 3205 MT/s
Heartbeat CPU 0 instructions: 10000000 cycles: 3250102 heartbeat IPC: 3.077 cumulative IPC: 3.077 (Simulation time: 00 hr 00 min 36 sec)
Heartbeat CPU 0 instructions: 20000000 cycles: 6486157 heartbeat IPC: 3.09 cumulative IPC: 3.083 (Simulation time: 00 hr 01 min 12 sec)
Warmup finished CPU 0 instructions: 20000000 cycles: 6486157 cumulative IPC: 3.083 (Simulation time: 00 hr 01 min 12 sec)
Warmup complete CPU 0 instructions: 20000000 cycles: 6486157 cumulative IPC: 3.083 (Simulation time: 00 hr 01 min 12 sec)
Heartbeat CPU 0 instructions: 30000002 cycles: 22909145 heartbeat IPC: 0.6089 cumulative IPC: 0.6089 (Simulation time: 00 hr 03 min 26 sec)
Heartbeat CPU 0 instructions: 40000004 cycles: 39298657 heartbeat IPC: 0.6101 cumulative IPC: 0.6095 (Simulation time: 00 hr 05 min 38 sec)
Heartbeat CPU 0 instructions: 50000007 cycles: 55611229 heartbeat IPC: 0.613 cumulative IPC: 0.6107 (Simulation time: 00 hr 07 min 51 sec)
Heartbeat CPU 0 instructions: 60000008 cycles: 71923000 heartbeat IPC: 0.6131 cumulative IPC: 0.6113 (Simulation time: 00 hr 10 min 01 sec)
Simulation finished CPU 0 instructions: 50000002 cycles: 81754560 cumulative IPC: 0.6116 (Simulation time: 00 hr 12 min 12 sec)
Simulation complete CPU 0 instructions: 50000002 cycles: 81754560 cumulative IPC: 0.6116 (Simulation time: 00 hr 12 min 12 sec)

ChampSim completed all CPUs

=== Simulation ===
CPU 0 runs traces/470.lbm-1274B.champsimtrace.xz

Region of Interest Statistics

CPU 0 cumulative IPC: 0.6116 instructions: 50000002 cycles: 81754560
CPU 0 Branch Prediction Accuracy: 99.79% MPKI: 0.02864 Average ROB Occupancy at Mispredict: 190
Branch type MPKI
BRANCH_DIRECT_JUMP: 0
BRANCH_INDIRECT: 0
BRANCH_CONDITIONAL: 0.02864
BRANCH_DIRECT_CALL: 0
BRANCH_INDIRECT_CALL: 0
BRANCH_RETURN: 0

cpu0->cpu0_STLB TOTAL        ACCESS:      11115 HIT:       5557 MISS:       5558 MSHR_MERGE:          0
cpu0->cpu0_STLB LOAD         ACCESS:      11115 HIT:       5557 MISS:       5558 MSHR_MERGE:          0
cpu0->cpu0_STLB RFO          ACCESS:          0 HIT:          0 MISS:          0 MSHR_MERGE:          0
cpu0->cpu0_STLB PREFETCH     ACCESS:          0 HIT:          0 MISS:          0 MSHR_MERGE:          0
cpu0->cpu0_STLB WRITE        ACCESS:          0 HIT:          0 MISS:          0 MSHR_MERGE:          0
cpu0->cpu0_STLB TRANSLATION  ACCESS:          0 HIT:          0 MISS:          0 MSHR_MERGE:          0
cpu0->cpu0_STLB PREFETCH REQUESTED:          0 ISSUED:          0 USEFUL:          0 USELESS:          0
cpu0->cpu0_STLB AVERAGE MISS LATENCY: 948.2 cycles
cpu0->cpu0_L2C TOTAL        ACCESS:    5324931 HIT:    2973879 MISS:    2351052 MSHR_MERGE:          0
cpu0->cpu0_L2C LOAD         ACCESS:     711434 HIT:          0 MISS:     711434 MSHR_MERGE:          0
cpu0->cpu0_L2C RFO          ACCESS:    2301152 HIT:     670580 MISS:    1630572 MSHR_MERGE:          0
cpu0->cpu0_L2C PREFETCH     ACCESS:          0 HIT:          0 MISS:          0 MSHR_MERGE:          0
cpu0->cpu0_L2C WRITE        ACCESS:    2301217 HIT:    2301202 MISS:         15 MSHR_MERGE:          0
cpu0->cpu0_L2C TRANSLATION  ACCESS:      11128 HIT:       2097 MISS:       9031 MSHR_MERGE:          0
cpu0->cpu0_L2C PREFETCH REQUESTED:          0 ISSUED:          0 USEFUL:          0 USELESS:          0
cpu0->cpu0_L2C AVERAGE MISS LATENCY: 300.5 cycles
cpu0->cpu0_L1I TOTAL        ACCESS:    9536839 HIT:    9536839 MISS:          0 MSHR_MERGE:          0
cpu0->cpu0_L1I LOAD         ACCESS:    9536839 HIT:    9536839 MISS:          0 MSHR_MERGE:          0
cpu0->cpu0_L1I RFO          ACCESS:          0 HIT:          0 MISS:          0 MSHR_MERGE:          0
cpu0->cpu0_L1I PREFETCH     ACCESS:          0 HIT:          0 MISS:          0 MSHR_MERGE:          0
cpu0->cpu0_L1I WRITE        ACCESS:          0 HIT:          0 MISS:          0 MSHR_MERGE:          0
cpu0->cpu0_L1I TRANSLATION  ACCESS:          0 HIT:          0 MISS:          0 MSHR_MERGE:          0
cpu0->cpu0_L1I PREFETCH REQUESTED:          0 ISSUED:          0 USEFUL:          0 USELESS:          0
cpu0->cpu0_L1I AVERAGE MISS LATENCY: - cycles
cpu0->cpu0_L1D TOTAL        ACCESS:    7672863 HIT:    4593087 MISS:    3079776 MSHR_MERGE:      56000
cpu0->cpu0_L1D LOAD         ACCESS:    2638216 HIT:    1918310 MISS:     719906 MSHR_MERGE:       8472
cpu0->cpu0_L1D RFO          ACCESS:          0 HIT:          0 MISS:          0 MSHR_MERGE:          0
cpu0->cpu0_L1D PREFETCH     ACCESS:          0 HIT:          0 MISS:          0 MSHR_MERGE:          0
cpu0->cpu0_L1D WRITE        ACCESS:    5023519 HIT:    2674777 MISS:    2348742 MSHR_MERGE:      47528
cpu0->cpu0_L1D TRANSLATION  ACCESS:      11128 HIT:          0 MISS:      11128 MSHR_MERGE:          0
cpu0->cpu0_L1D PREFETCH REQUESTED:          0 ISSUED:          0 USEFUL:          0 USELESS:          0
cpu0->cpu0_L1D AVERAGE MISS LATENCY: 242.7 cycles
cpu0->cpu0_ITLB TOTAL        ACCESS:    7456843 HIT:    7456843 MISS:          0 MSHR_MERGE:          0
cpu0->cpu0_ITLB LOAD         ACCESS:    7456843 HIT:    7456843 MISS:          0 MSHR_MERGE:          0
cpu0->cpu0_ITLB RFO          ACCESS:          0 HIT:          0 MISS:          0 MSHR_MERGE:          0
cpu0->cpu0_ITLB PREFETCH     ACCESS:          0 HIT:          0 MISS:          0 MSHR_MERGE:          0
cpu0->cpu0_ITLB WRITE        ACCESS:          0 HIT:          0 MISS:          0 MSHR_MERGE:          0
cpu0->cpu0_ITLB TRANSLATION  ACCESS:          0 HIT:          0 MISS:          0 MSHR_MERGE:          0
cpu0->cpu0_ITLB PREFETCH REQUESTED:          0 ISSUED:          0 USEFUL:          0 USELESS:          0
cpu0->cpu0_ITLB AVERAGE MISS LATENCY: - cycles
cpu0->cpu0_DTLB TOTAL        ACCESS:    7201056 HIT:    7179988 MISS:      21068 MSHR_MERGE:       9953
cpu0->cpu0_DTLB LOAD         ACCESS:    7201056 HIT:    7179988 MISS:      21068 MSHR_MERGE:       9953
cpu0->cpu0_DTLB RFO          ACCESS:          0 HIT:          0 MISS:          0 MSHR_MERGE:          0
cpu0->cpu0_DTLB PREFETCH     ACCESS:          0 HIT:          0 MISS:          0 MSHR_MERGE:          0
cpu0->cpu0_DTLB WRITE        ACCESS:          0 HIT:          0 MISS:          0 MSHR_MERGE:          0
cpu0->cpu0_DTLB TRANSLATION  ACCESS:          0 HIT:          0 MISS:          0 MSHR_MERGE:          0
cpu0->cpu0_DTLB PREFETCH REQUESTED:          0 ISSUED:          0 USEFUL:          0 USELESS:          0
cpu0->cpu0_DTLB AVERAGE MISS LATENCY: 478.7 cycles
cpu0->LLC TOTAL        ACCESS:    3981732 HIT:     301637 MISS:    3680095 MSHR_MERGE:          0
cpu0->LLC LOAD         ACCESS:     711434 HIT:          0 MISS:     711434 MSHR_MERGE:          0
cpu0->LLC RFO          ACCESS:    1630572 HIT:     124720 MISS:    1505852 MSHR_MERGE:          0
cpu0->LLC PREFETCH     ACCESS:          0 HIT:          0 MISS:          0 MSHR_MERGE:          0
cpu0->LLC WRITE        ACCESS:    1630695 HIT:     176917 MISS:    1453778 MSHR_MERGE:          0
cpu0->LLC TRANSLATION  ACCESS:       9031 HIT:          0 MISS:       9031 MSHR_MERGE:          0
cpu0->LLC PREFETCH REQUESTED:          0 ISSUED:          0 USEFUL:          0 USELESS:          0
cpu0->LLC AVERAGE MISS LATENCY: 184.7 cycles

DRAM Statistics

Channel 0 RQ ROW_BUFFER_HIT:      40191
  ROW_BUFFER_MISS:    2185958
  AVG DBUS CONGESTED CYCLE: 16.47
Channel 0 WQ ROW_BUFFER_HIT:     238001
  ROW_BUFFER_MISS:    1265998
  FULL:        238
Channel 0 REFRESHES ISSUED:       6813
