[VMEM] WARNING: physical memory size is smaller than virtual memory size.
WARNING: option --warmup_instructions is deprecated. Use --warmup-instructions instead.
WARNING: option --simulation_instructions is deprecated. Use --simulation-instructions instead.

*** ChampSim Multicore Out-of-Order Simulator ***
Warmup Instructions: 20000000
Simulation Instructions: 50000000
Number of CPUs: 1
Page size: 8192

Off-chip DRAM Size: 16 GiB Channels: 1 Width: 64-bit Data Rate: 3205 MT/s
Heartbeat CPU 0 instructions: 10000000 cycles: 7203076 heartbeat IPC: 1.388 cumulative IPC: 1.388 (Simulation time: 00 hr 01 min 08 sec)
Heartbeat CPU 0 instructions: 20000001 cycles: 11520958 heartbeat IPC: 2.316 cumulative IPC: 1.736 (Simulation time: 00 hr 02 min 00 sec)
Warmup finished CPU 0 instructions: 20000001 cycles: 11520958 cumulative IPC: 1.736 (Simulation time: 00 hr 02 min 00 sec)
Warmup complete CPU 0 instructions: 20000001 cycles: 11520958 cumulative IPC: 1.736 (Simulation time: 00 hr 02 min 00 sec)
Heartbeat CPU 0 instructions: 30000003 cycles: 65492195 heartbeat IPC: 0.1853 cumulative IPC: 0.1853 (Simulation time: 00 hr 06 min 22 sec)
Heartbeat CPU 0 instructions: 40000005 cycles: 119286018 heartbeat IPC: 0.1859 cumulative IPC: 0.1856 (Simulation time: 00 hr 10 min 49 sec)
Heartbeat CPU 0 instructions: 50000006 cycles: 173296248 heartbeat IPC: 0.1852 cumulative IPC: 0.1854 (Simulation time: 00 hr 15 min 18 sec)
Heartbeat CPU 0 instructions: 60000007 cycles: 226518052 heartbeat IPC: 0.1879 cumulative IPC: 0.186 (Simulation time: 00 hr 19 min 45 sec)
Simulation finished CPU 0 instructions: 50000002 cycles: 267512501 cumulative IPC: 0.1869 (Simulation time: 00 hr 24 min 09 sec)
Simulation complete CPU 0 instructions: 50000002 cycles: 267512501 cumulative IPC: 0.1869 (Simulation time: 00 hr 24 min 09 sec)

ChampSim completed all CPUs

=== Simulation ===
CPU 0 runs traces/473.astar-359B.champsimtrace.xz

Region of Interest Statistics

CPU 0 cumulative IPC: 0.1869 instructions: 50000002 cycles: 267512501
CPU 0 Branch Prediction Accuracy: 93.2% MPKI: 13.43 Average ROB Occupancy at Mispredict: 44.99
Branch type MPKI
BRANCH_DIRECT_JUMP: 0
BRANCH_INDIRECT: 0
BRANCH_CONDITIONAL: 13.42
BRANCH_DIRECT_CALL: 0
BRANCH_INDIRECT_CALL: 0.00054
BRANCH_RETURN: 0

cpu0->cpu0_STLB TOTAL        ACCESS:    1275736 HIT:     889463 MISS:     386273 MSHR_MERGE:          0
cpu0->cpu0_STLB LOAD         ACCESS:    1275736 HIT:     889463 MISS:     386273 MSHR_MERGE:          0
cpu0->cpu0_STLB RFO          ACCESS:          0 HIT:          0 MISS:          0 MSHR_MERGE:          0
cpu0->cpu0_STLB PREFETCH     ACCESS:          0 HIT:          0 MISS:          0 MSHR_MERGE:          0
cpu0->cpu0_STLB WRITE        ACCESS:          0 HIT:          0 MISS:          0 MSHR_MERGE:          0
cpu0->cpu0_STLB TRANSLATION  ACCESS:          0 HIT:          0 MISS:          0 MSHR_MERGE:          0
cpu0->cpu0_STLB PREFETCH REQUESTED:          0 ISSUED:          0 USEFUL:          0 USELESS:          0
cpu0->cpu0_STLB AVERAGE MISS LATENCY: 449.9 cycles
cpu0->cpu0_L2C TOTAL        ACCESS:    4899423 HIT:    2101058 MISS:    2798365 MSHR_MERGE:          0
cpu0->cpu0_L2C LOAD         ACCESS:    2178412 HIT:     771769 MISS:    1406643 MSHR_MERGE:          0
cpu0->cpu0_L2C RFO          ACCESS:     821614 HIT:      98240 MISS:     723374 MSHR_MERGE:          0
cpu0->cpu0_L2C PREFETCH     ACCESS:          0 HIT:          0 MISS:          0 MSHR_MERGE:          0
cpu0->cpu0_L2C WRITE        ACCESS:    1224912 HIT:    1224863 MISS:         49 MSHR_MERGE:          0
cpu0->cpu0_L2C TRANSLATION  ACCESS:     674485 HIT:       6186 MISS:     668299 MSHR_MERGE:          0
cpu0->cpu0_L2C PREFETCH REQUESTED:          0 ISSUED:          0 USEFUL:          0 USELESS:          0
cpu0->cpu0_L2C AVERAGE MISS LATENCY: 205 cycles
cpu0->cpu0_L1I TOTAL        ACCESS:     841032 HIT:     841021 MISS:         11 MSHR_MERGE:          1
cpu0->cpu0_L1I LOAD         ACCESS:     841032 HIT:     841021 MISS:         11 MSHR_MERGE:          1
cpu0->cpu0_L1I RFO          ACCESS:          0 HIT:          0 MISS:          0 MSHR_MERGE:          0
cpu0->cpu0_L1I PREFETCH     ACCESS:          0 HIT:          0 MISS:          0 MSHR_MERGE:          0
cpu0->cpu0_L1I WRITE        ACCESS:          0 HIT:          0 MISS:          0 MSHR_MERGE:          0
cpu0->cpu0_L1I TRANSLATION  ACCESS:          0 HIT:          0 MISS:          0 MSHR_MERGE:          0
cpu0->cpu0_L1I PREFETCH REQUESTED:          0 ISSUED:          0 USEFUL:          0 USELESS:          0
cpu0->cpu0_L1I AVERAGE MISS LATENCY: 172 cycles
cpu0->cpu0_L1D TOTAL        ACCESS:   20649783 HIT:   16164408 MISS:    4485375 MSHR_MERGE:     810872
cpu0->cpu0_L1D LOAD         ACCESS:   13559368 HIT:   10650554 MISS:    2908814 MSHR_MERGE:     730412
cpu0->cpu0_L1D RFO          ACCESS:          0 HIT:          0 MISS:          0 MSHR_MERGE:          0
cpu0->cpu0_L1D PREFETCH     ACCESS:          0 HIT:          0 MISS:          0 MSHR_MERGE:          0
cpu0->cpu0_L1D WRITE        ACCESS:    6314665 HIT:    5482907 MISS:     831758 MSHR_MERGE:      10142
cpu0->cpu0_L1D TRANSLATION  ACCESS:     775750 HIT:      30947 MISS:     744803 MSHR_MERGE:      70318
cpu0->cpu0_L1D PREFETCH REQUESTED:          0 ISSUED:          0 USEFUL:          0 USELESS:          0
cpu0->cpu0_L1D AVERAGE MISS LATENCY: 164.9 cycles
cpu0->cpu0_ITLB TOTAL        ACCESS:     837976 HIT:     837976 MISS:          0 MSHR_MERGE:          0
cpu0->cpu0_ITLB LOAD         ACCESS:     837976 HIT:     837976 MISS:          0 MSHR_MERGE:          0
cpu0->cpu0_ITLB RFO          ACCESS:          0 HIT:          0 MISS:          0 MSHR_MERGE:          0
cpu0->cpu0_ITLB PREFETCH     ACCESS:          0 HIT:          0 MISS:          0 MSHR_MERGE:          0
cpu0->cpu0_ITLB WRITE        ACCESS:          0 HIT:          0 MISS:          0 MSHR_MERGE:          0
cpu0->cpu0_ITLB TRANSLATION  ACCESS:          0 HIT:          0 MISS:          0 MSHR_MERGE:          0
cpu0->cpu0_ITLB PREFETCH REQUESTED:          0 ISSUED:          0 USEFUL:          0 USELESS:          0
cpu0->cpu0_ITLB AVERAGE MISS LATENCY: - cycles
cpu0->cpu0_DTLB TOTAL        ACCESS:   18853873 HIT:   16945815 MISS:    1908058 MSHR_MERGE:     632322
cpu0->cpu0_DTLB LOAD         ACCESS:   18853873 HIT:   16945815 MISS:    1908058 MSHR_MERGE:     632322
cpu0->cpu0_DTLB RFO          ACCESS:          0 HIT:          0 MISS:          0 MSHR_MERGE:          0
cpu0->cpu0_DTLB PREFETCH     ACCESS:          0 HIT:          0 MISS:          0 MSHR_MERGE:          0
cpu0->cpu0_DTLB WRITE        ACCESS:          0 HIT:          0 MISS:          0 MSHR_MERGE:          0
cpu0->cpu0_DTLB TRANSLATION  ACCESS:          0 HIT:          0 MISS:          0 MSHR_MERGE:          0
cpu0->cpu0_DTLB PREFETCH REQUESTED:          0 ISSUED:          0 USEFUL:          0 USELESS:          0
cpu0->cpu0_DTLB AVERAGE MISS LATENCY: 140.5 cycles
cpu0->LLC TOTAL        ACCESS:    3922594 HIT:     761056 MISS:    3161538 MSHR_MERGE:          0
cpu0->LLC LOAD         ACCESS:    1406641 HIT:     222346 MISS:    1184295 MSHR_MERGE:          0
cpu0->LLC RFO          ACCESS:     723374 HIT:     145135 MISS:     578239 MSHR_MERGE:          0
cpu0->LLC PREFETCH     ACCESS:          0 HIT:          0 MISS:          0 MSHR_MERGE:          0
cpu0->LLC WRITE        ACCESS:    1124280 HIT:     293882 MISS:     830398 MSHR_MERGE:          0
cpu0->LLC TRANSLATION  ACCESS:     668299 HIT:      99693 MISS:     568606 MSHR_MERGE:          0
cpu0->LLC PREFETCH REQUESTED:          0 ISSUED:          0 USEFUL:          0 USELESS:          0
cpu0->LLC AVERAGE MISS LATENCY: 168.9 cycles

DRAM Statistics

Channel 0 RQ ROW_BUFFER_HIT:      60238
  ROW_BUFFER_MISS:    2270747
  AVG DBUS CONGESTED CYCLE: 23.21
Channel 0 WQ ROW_BUFFER_HIT:     151412
  ROW_BUFFER_MISS:     726363
  FULL:         44
Channel 0 REFRESHES ISSUED:      22292
