[VMEM] WARNING: physical memory size is smaller than virtual memory size.
WARNING: option --warmup_instructions is deprecated. Use --warmup-instructions instead.
WARNING: option --simulation_instructions is deprecated. Use --simulation-instructions instead.

*** ChampSim Multicore Out-of-Order Simulator ***
Warmup Instructions: 20000000
Simulation Instructions: 50000000
Number of CPUs: 1
Page size: 8192

Off-chip DRAM Size: 16 GiB Channels: 1 Width: 64-bit Data Rate: 3205 MT/s
Heartbeat CPU 0 instructions: 10000001 cycles: 4999160 heartbeat IPC: 2 cumulative IPC: 2 (Simulation time: 00 hr 00 min 52 sec)
Heartbeat CPU 0 instructions: 20000002 cycles: 9947934 heartbeat IPC: 2.021 cumulative IPC: 2.01 (Simulation time: 00 hr 01 min 45 sec)
Warmup finished CPU 0 instructions: 20000002 cycles: 9947934 cumulative IPC: 2.01 (Simulation time: 00 hr 01 min 45 sec)
Warmup complete CPU 0 instructions: 20000002 cycles: 9947934 cumulative IPC: 2.01 (Simulation time: 00 hr 01 min 45 sec)
Heartbeat CPU 0 instructions: 30000005 cycles: 53403476 heartbeat IPC: 0.2301 cumulative IPC: 0.2301 (Simulation time: 00 hr 04 min 57 sec)
Heartbeat CPU 0 instructions: 40000005 cycles: 96364894 heartbeat IPC: 0.2328 cumulative IPC: 0.2314 (Simulation time: 00 hr 08 min 11 sec)
Heartbeat CPU 0 instructions: 50000007 cycles: 140316230 heartbeat IPC: 0.2275 cumulative IPC: 0.2301 (Simulation time: 00 hr 11 min 27 sec)
Heartbeat CPU 0 instructions: 60000008 cycles: 184148631 heartbeat IPC: 0.2281 cumulative IPC: 0.2296 (Simulation time: 00 hr 14 min 45 sec)
Simulation finished CPU 0 instructions: 50000002 cycles: 218720273 cumulative IPC: 0.2286 (Simulation time: 00 hr 18 min 08 sec)
Simulation complete CPU 0 instructions: 50000002 cycles: 218720273 cumulative IPC: 0.2286 (Simulation time: 00 hr 18 min 08 sec)

ChampSim completed all CPUs

=== Simulation ===
CPU 0 runs traces/605.mcf_s-1152B.champsimtrace.xz

Region of Interest Statistics

CPU 0 cumulative IPC: 0.2286 instructions: 50000002 cycles: 218720273
CPU 0 Branch Prediction Accuracy: 90.19% MPKI: 24.48 Average ROB Occupancy at Mispredict: 21.65
Branch type MPKI
BRANCH_DIRECT_JUMP: 0.2057
BRANCH_INDIRECT: 0
BRANCH_CONDITIONAL: 24.27
BRANCH_DIRECT_CALL: 0
BRANCH_INDIRECT_CALL: 0.0036
BRANCH_RETURN: 2e-05

cpu0->cpu0_STLB TOTAL        ACCESS:    1006318 HIT:    1000561 MISS:       5757 MSHR_MERGE:          0
cpu0->cpu0_STLB LOAD         ACCESS:    1006318 HIT:    1000561 MISS:       5757 MSHR_MERGE:          0
cpu0->cpu0_STLB RFO          ACCESS:          0 HIT:          0 MISS:          0 MSHR_MERGE:          0
cpu0->cpu0_STLB PREFETCH     ACCESS:          0 HIT:          0 MISS:          0 MSHR_MERGE:          0
cpu0->cpu0_STLB WRITE        ACCESS:          0 HIT:          0 MISS:          0 MSHR_MERGE:          0
cpu0->cpu0_STLB TRANSLATION  ACCESS:          0 HIT:          0 MISS:          0 MSHR_MERGE:          0
cpu0->cpu0_STLB PREFETCH REQUESTED:          0 ISSUED:          0 USEFUL:          0 USELESS:          0
cpu0->cpu0_STLB AVERAGE MISS LATENCY: 625.4 cycles
cpu0->cpu0_L2C TOTAL        ACCESS:    3910017 HIT:    1013137 MISS:    2896880 MSHR_MERGE:          0
cpu0->cpu0_L2C LOAD         ACCESS:    3209062 HIT:     534048 MISS:    2675014 MSHR_MERGE:          0
cpu0->cpu0_L2C RFO          ACCESS:     281147 HIT:      67122 MISS:     214025 MSHR_MERGE:          0
cpu0->cpu0_L2C PREFETCH     ACCESS:          0 HIT:          0 MISS:          0 MSHR_MERGE:          0
cpu0->cpu0_L2C WRITE        ACCESS:     410076 HIT:     409744 MISS:        332 MSHR_MERGE:          0
cpu0->cpu0_L2C TRANSLATION  ACCESS:       9732 HIT:       2223 MISS:       7509 MSHR_MERGE:          0
cpu0->cpu0_L2C PREFETCH REQUESTED:          0 ISSUED:          0 USEFUL:          0 USELESS:          0
cpu0->cpu0_L2C AVERAGE MISS LATENCY: 77.58 cycles
cpu0->cpu0_L1I TOTAL        ACCESS:     487264 HIT:     487264 MISS:          0 MSHR_MERGE:          0
cpu0->cpu0_L1I LOAD         ACCESS:     487264 HIT:     487264 MISS:          0 MSHR_MERGE:          0
cpu0->cpu0_L1I RFO          ACCESS:          0 HIT:          0 MISS:          0 MSHR_MERGE:          0
cpu0->cpu0_L1I PREFETCH     ACCESS:          0 HIT:          0 MISS:          0 MSHR_MERGE:          0
cpu0->cpu0_L1I WRITE        ACCESS:          0 HIT:          0 MISS:          0 MSHR_MERGE:          0
cpu0->cpu0_L1I TRANSLATION  ACCESS:          0 HIT:          0 MISS:          0 MSHR_MERGE:          0
cpu0->cpu0_L1I PREFETCH REQUESTED:          0 ISSUED:          0 USEFUL:          0 USELESS:          0
cpu0->cpu0_L1I AVERAGE MISS LATENCY: - cycles
cpu0->cpu0_L1D TOTAL        ACCESS:   18708931 HIT:   14426186 MISS:    4282745 MSHR_MERGE:     782793
cpu0->cpu0_L1D LOAD         ACCESS:   13532574 HIT:    9816231 MISS:    3716343 MSHR_MERGE:     507274
cpu0->cpu0_L1D RFO          ACCESS:          0 HIT:          0 MISS:          0 MSHR_MERGE:          0
cpu0->cpu0_L1D PREFETCH     ACCESS:          0 HIT:          0 MISS:          0 MSHR_MERGE:          0
cpu0->cpu0_L1D WRITE        ACCESS:    5164747 HIT:    4608077 MISS:     556670 MSHR_MERGE:     275519
cpu0->cpu0_L1D TRANSLATION  ACCESS:      11610 HIT:       1878 MISS:       9732 MSHR_MERGE:          0
cpu0->cpu0_L1D PREFETCH REQUESTED:          0 ISSUED:          0 USEFUL:          0 USELESS:          0
cpu0->cpu0_L1D AVERAGE MISS LATENCY: 73.04 cycles
cpu0->cpu0_ITLB TOTAL        ACCESS:     439286 HIT:     439286 MISS:          0 MSHR_MERGE:          0
cpu0->cpu0_ITLB LOAD         ACCESS:     439286 HIT:     439286 MISS:          0 MSHR_MERGE:          0
cpu0->cpu0_ITLB RFO          ACCESS:          0 HIT:          0 MISS:          0 MSHR_MERGE:          0
cpu0->cpu0_ITLB PREFETCH     ACCESS:          0 HIT:          0 MISS:          0 MSHR_MERGE:          0
cpu0->cpu0_ITLB WRITE        ACCESS:          0 HIT:          0 MISS:          0 MSHR_MERGE:          0
cpu0->cpu0_ITLB TRANSLATION  ACCESS:          0 HIT:          0 MISS:          0 MSHR_MERGE:          0
cpu0->cpu0_ITLB PREFETCH REQUESTED:          0 ISSUED:          0 USEFUL:          0 USELESS:          0
cpu0->cpu0_ITLB AVERAGE MISS LATENCY: - cycles
cpu0->cpu0_DTLB TOTAL        ACCESS:   17438657 HIT:   16241111 MISS:    1197546 MSHR_MERGE:     191228
cpu0->cpu0_DTLB LOAD         ACCESS:   17438657 HIT:   16241111 MISS:    1197546 MSHR_MERGE:     191228
cpu0->cpu0_DTLB RFO          ACCESS:          0 HIT:          0 MISS:          0 MSHR_MERGE:          0
cpu0->cpu0_DTLB PREFETCH     ACCESS:          0 HIT:          0 MISS:          0 MSHR_MERGE:          0
cpu0->cpu0_DTLB WRITE        ACCESS:          0 HIT:          0 MISS:          0 MSHR_MERGE:          0
cpu0->cpu0_DTLB TRANSLATION  ACCESS:          0 HIT:          0 MISS:          0 MSHR_MERGE:          0
cpu0->cpu0_DTLB PREFETCH REQUESTED:          0 ISSUED:          0 USEFUL:          0 USELESS:          0
cpu0->cpu0_DTLB AVERAGE MISS LATENCY: 7.584 cycles
cpu0->LLC TOTAL        ACCESS:    3196663 HIT:    1636548 MISS:    1560115 MSHR_MERGE:          0
cpu0->LLC LOAD         ACCESS:    2675014 HIT:    1128829 MISS:    1546185 MSHR_MERGE:          0
cpu0->LLC RFO          ACCESS:     214025 HIT:     212596 MISS:       1429 MSHR_MERGE:          0
cpu0->LLC PREFETCH     ACCESS:          0 HIT:          0 MISS:          0 MSHR_MERGE:          0
cpu0->LLC WRITE        ACCESS:     300115 HIT:     295110 MISS:       5005 MSHR_MERGE:          0
cpu0->LLC TRANSLATION  ACCESS:       7509 HIT:         13 MISS:       7496 MSHR_MERGE:          0
cpu0->LLC PREFETCH REQUESTED:          0 ISSUED:          0 USEFUL:          0 USELESS:          0
cpu0->LLC AVERAGE MISS LATENCY: 113.4 cycles

DRAM Statistics

Channel 0 RQ ROW_BUFFER_HIT:     456277
  ROW_BUFFER_MISS:    1098831
  AVG DBUS CONGESTED CYCLE: 26.12
Channel 0 WQ ROW_BUFFER_HIT:        329
  ROW_BUFFER_MISS:       6885
  FULL:          0
Channel 0 REFRESHES ISSUED:      18227
