[VMEM] WARNING: physical memory size is smaller than virtual memory size.
WARNING: option --warmup_instructions is deprecated. Use --warmup-instructions instead.
WARNING: option --simulation_instructions is deprecated. Use --simulation-instructions instead.

*** ChampSim Multicore Out-of-Order Simulator ***
Warmup Instructions: 20000000
Simulation Instructions: 50000000
Number of CPUs: 1
Page size: 8192

Off-chip DRAM Size: 16 GiB Channels: 1 Width: 64-bit Data Rate: 3205 MT/s
Heartbeat CPU 0 instructions: 10000001 cycles: 4634106 heartbeat IPC: 2.158 cumulative IPC: 2.158 (Simulation time: 00 hr 00 min 46 sec)
Heartbeat CPU 0 instructions: 20000002 cycles: 9214241 heartbeat IPC: 2.183 cumulative IPC: 2.171 (Simulation time: 00 hr 01 min 39 sec)
Warmup finished CPU 0 instructions: 20000002 cycles: 9214241 cumulative IPC: 2.171 (Simulation time: 00 hr 01 min 39 sec)
Warmup complete CPU 0 instructions: 20000002 cycles: 9214241 cumulative IPC: 2.171 (Simulation time: 00 hr 01 min 39 sec)
Heartbeat CPU 0 instructions: 30000005 cycles: 38274639 heartbeat IPC: 0.3441 cumulative IPC: 0.3441 (Simulation time: 00 hr 04 min 45 sec)
Heartbeat CPU 0 instructions: 40000005 cycles: 67025628 heartbeat IPC: 0.3478 cumulative IPC: 0.346 (Simulation time: 00 hr 07 min 54 sec)
Heartbeat CPU 0 instructions: 50000007 cycles: 96208084 heartbeat IPC: 0.3427 cumulative IPC: 0.3449 (Simulation time: 00 hr 17 min 53 sec)
Heartbeat CPU 0 instructions: 60000007 cycles: 125082275 heartbeat IPC: 0.3463 cumulative IPC: 0.3452 (Simulation time: 00 hr 19 min 58 sec)
Simulation finished CPU 0 instructions: 50000002 cycles: 145076364 cumulative IPC: 0.3446 (Simulation time: 00 hr 22 min 44 sec)
Simulation complete CPU 0 instructions: 50000002 cycles: 145076364 cumulative IPC: 0.3446 (Simulation time: 00 hr 22 min 44 sec)

ChampSim completed all CPUs

=== Simulation ===
CPU 0 runs traces/605.mcf_s-1152B.champsimtrace.xz

Region of Interest Statistics

CPU 0 cumulative IPC: 0.3446 instructions: 50000002 cycles: 145076364
CPU 0 Branch Prediction Accuracy: 90.19% MPKI: 24.48 Average ROB Occupancy at Mispredict: 21.43
Branch type MPKI
BRANCH_DIRECT_JUMP: 0.2057
BRANCH_INDIRECT: 0
BRANCH_CONDITIONAL: 24.27
BRANCH_DIRECT_CALL: 0
BRANCH_INDIRECT_CALL: 0.0036
BRANCH_RETURN: 2e-05

cpu0->cpu0_STLB TOTAL        ACCESS:    1006285 HIT:    1000528 MISS:       5757 MSHR_MERGE:          0
cpu0->cpu0_STLB LOAD         ACCESS:    1006285 HIT:    1000528 MISS:       5757 MSHR_MERGE:          0
cpu0->cpu0_STLB RFO          ACCESS:          0 HIT:          0 MISS:          0 MSHR_MERGE:          0
cpu0->cpu0_STLB PREFETCH     ACCESS:          0 HIT:          0 MISS:          0 MSHR_MERGE:          0
cpu0->cpu0_STLB WRITE        ACCESS:          0 HIT:          0 MISS:          0 MSHR_MERGE:          0
cpu0->cpu0_STLB TRANSLATION  ACCESS:          0 HIT:          0 MISS:          0 MSHR_MERGE:          0
cpu0->cpu0_STLB PREFETCH REQUESTED:          0 ISSUED:          0 USEFUL:          0 USELESS:          0
cpu0->cpu0_STLB AVERAGE MISS LATENCY: 621.4 cycles
cpu0->cpu0_L2C TOTAL        ACCESS:    5516371 HIT:    1685023 MISS:    3831348 MSHR_MERGE:     190578
cpu0->cpu0_L2C LOAD         ACCESS:    2552734 HIT:     997672 MISS:    1555062 MSHR_MERGE:     141003
cpu0->cpu0_L2C RFO          ACCESS:     187385 HIT:      37552 MISS:     149833 MSHR_MERGE:          0
cpu0->cpu0_L2C PREFETCH     ACCESS:    2502136 HIT:     383247 MISS:    2118889 MSHR_MERGE:      49575
cpu0->cpu0_L2C WRITE        ACCESS:     265768 HIT:     265072 MISS:        696 MSHR_MERGE:          0
cpu0->cpu0_L2C TRANSLATION  ACCESS:       8348 HIT:       1480 MISS:       6868 MSHR_MERGE:          0
cpu0->cpu0_L2C PREFETCH REQUESTED:    2502137 ISSUED:    2502137 USEFUL:     782175 USELESS:    1287175
cpu0->cpu0_L2C AVERAGE MISS LATENCY: 54.98 cycles
cpu0->cpu0_L1I TOTAL        ACCESS:     434164 HIT:     434164 MISS:          0 MSHR_MERGE:          0
cpu0->cpu0_L1I LOAD         ACCESS:     434164 HIT:     434164 MISS:          0 MSHR_MERGE:          0
cpu0->cpu0_L1I RFO          ACCESS:          0 HIT:          0 MISS:          0 MSHR_MERGE:          0
cpu0->cpu0_L1I PREFETCH     ACCESS:          0 HIT:          0 MISS:          0 MSHR_MERGE:          0
cpu0->cpu0_L1I WRITE        ACCESS:          0 HIT:          0 MISS:          0 MSHR_MERGE:          0
cpu0->cpu0_L1I TRANSLATION  ACCESS:          0 HIT:          0 MISS:          0 MSHR_MERGE:          0
cpu0->cpu0_L1I PREFETCH REQUESTED:          0 ISSUED:          0 USEFUL:          0 USELESS:          0
cpu0->cpu0_L1I AVERAGE MISS LATENCY: - cycles
cpu0->cpu0_L1D TOTAL        ACCESS:   17980980 HIT:   14388448 MISS:    3592532 MSHR_MERGE:     844061
cpu0->cpu0_L1D LOAD         ACCESS:   12805070 HIT:    9720019 MISS:    3085051 MSHR_MERGE:     532317
cpu0->cpu0_L1D RFO          ACCESS:          0 HIT:          0 MISS:          0 MSHR_MERGE:          0
cpu0->cpu0_L1D PREFETCH     ACCESS:          0 HIT:          0 MISS:          0 MSHR_MERGE:          0
cpu0->cpu0_L1D WRITE        ACCESS:    5164300 HIT:    4665167 MISS:     499133 MSHR_MERGE:     311744
cpu0->cpu0_L1D TRANSLATION  ACCESS:      11610 HIT:       3262 MISS:       8348 MSHR_MERGE:          0
cpu0->cpu0_L1D PREFETCH REQUESTED:          0 ISSUED:          0 USEFUL:          0 USELESS:          0
cpu0->cpu0_L1D AVERAGE MISS LATENCY: 42.89 cycles
cpu0->cpu0_ITLB TOTAL        ACCESS:     402213 HIT:     402213 MISS:          0 MSHR_MERGE:          0
cpu0->cpu0_ITLB LOAD         ACCESS:     402213 HIT:     402213 MISS:          0 MSHR_MERGE:          0
cpu0->cpu0_ITLB RFO          ACCESS:          0 HIT:          0 MISS:          0 MSHR_MERGE:          0
cpu0->cpu0_ITLB PREFETCH     ACCESS:          0 HIT:          0 MISS:          0 MSHR_MERGE:          0
cpu0->cpu0_ITLB WRITE        ACCESS:          0 HIT:          0 MISS:          0 MSHR_MERGE:          0
cpu0->cpu0_ITLB TRANSLATION  ACCESS:          0 HIT:          0 MISS:          0 MSHR_MERGE:          0
cpu0->cpu0_ITLB PREFETCH REQUESTED:          0 ISSUED:          0 USEFUL:          0 USELESS:          0
cpu0->cpu0_ITLB AVERAGE MISS LATENCY: - cycles
cpu0->cpu0_DTLB TOTAL        ACCESS:   16841415 HIT:   15649093 MISS:    1192322 MSHR_MERGE:     186037
cpu0->cpu0_DTLB LOAD         ACCESS:   16841415 HIT:   15649093 MISS:    1192322 MSHR_MERGE:     186037
cpu0->cpu0_DTLB RFO          ACCESS:          0 HIT:          0 MISS:          0 MSHR_MERGE:          0
cpu0->cpu0_DTLB PREFETCH     ACCESS:          0 HIT:          0 MISS:          0 MSHR_MERGE:          0
cpu0->cpu0_DTLB WRITE        ACCESS:          0 HIT:          0 MISS:          0 MSHR_MERGE:          0
cpu0->cpu0_DTLB TRANSLATION  ACCESS:          0 HIT:          0 MISS:          0 MSHR_MERGE:          0
cpu0->cpu0_DTLB PREFETCH REQUESTED:          0 ISSUED:          0 USEFUL:          0 USELESS:          0
cpu0->cpu0_DTLB AVERAGE MISS LATENCY: 7.561 cycles
cpu0->LLC TOTAL        ACCESS:    3852929 HIT:    2304150 MISS:    1548779 MSHR_MERGE:          0
cpu0->LLC LOAD         ACCESS:    1414058 HIT:    1051461 MISS:     362597 MSHR_MERGE:          0
cpu0->LLC RFO          ACCESS:     149833 HIT:     142392 MISS:       7441 MSHR_MERGE:          0
cpu0->LLC PREFETCH     ACCESS:    2069314 HIT:     907154 MISS:    1162160 MSHR_MERGE:          0
cpu0->LLC WRITE        ACCESS:     212856 HIT:     203111 MISS:       9745 MSHR_MERGE:          0
cpu0->LLC TRANSLATION  ACCESS:       6868 HIT:         32 MISS:       6836 MSHR_MERGE:          0
cpu0->LLC PREFETCH REQUESTED:          0 ISSUED:          0 USEFUL:          0 USELESS:          0
cpu0->LLC AVERAGE MISS LATENCY: 144 cycles

DRAM Statistics

Channel 0 RQ ROW_BUFFER_HIT:     163663
  ROW_BUFFER_MISS:    1375288
  AVG DBUS CONGESTED CYCLE: 23.16
Channel 0 WQ ROW_BUFFER_HIT:       3501
  ROW_BUFFER_MISS:      11877
  FULL:          0
Channel 0 REFRESHES ISSUED:      12090
