[VMEM] WARNING: physical memory size is smaller than virtual memory size.
WARNING: option --warmup_instructions is deprecated. Use --warmup-instructions instead.
WARNING: option --simulation_instructions is deprecated. Use --simulation-instructions instead.

*** ChampSim Multicore Out-of-Order Simulator ***
Warmup Instructions: 20000000
Simulation Instructions: 50000000
Number of CPUs: 1
Page size: 8192

Off-chip DRAM Size: 16 GiB Channels: 1 Width: 64-bit Data Rate: 3205 MT/s
Heartbeat CPU 0 instructions: 10000000 cycles: 6773415 heartbeat IPC: 1.476 cumulative IPC: 1.476 (Simulation time: 00 hr 00 min 56 sec)
Heartbeat CPU 0 instructions: 20000005 cycles: 10657405 heartbeat IPC: 2.575 cumulative IPC: 1.877 (Simulation time: 00 hr 01 min 38 sec)
Warmup finished CPU 0 instructions: 20000005 cycles: 10657405 cumulative IPC: 1.877 (Simulation time: 00 hr 01 min 38 sec)
Warmup complete CPU 0 instructions: 20000005 cycles: 10657405 cumulative IPC: 1.877 (Simulation time: 00 hr 01 min 38 sec)
Heartbeat CPU 0 instructions: 30000007 cycles: 57250097 heartbeat IPC: 0.2146 cumulative IPC: 0.2146 (Simulation time: 00 hr 04 min 52 sec)
Heartbeat CPU 0 instructions: 40000013 cycles: 104526458 heartbeat IPC: 0.2115 cumulative IPC: 0.2131 (Simulation time: 00 hr 08 min 21 sec)
Heartbeat CPU 0 instructions: 50000018 cycles: 151771892 heartbeat IPC: 0.2117 cumulative IPC: 0.2126 (Simulation time: 00 hr 11 min 53 sec)
Heartbeat CPU 0 instructions: 60000018 cycles: 198073069 heartbeat IPC: 0.216 cumulative IPC: 0.2134 (Simulation time: 00 hr 15 min 29 sec)
Simulation finished CPU 0 instructions: 50000006 cycles: 235145978 cumulative IPC: 0.2126 (Simulation time: 00 hr 19 min 30 sec)
Simulation complete CPU 0 instructions: 50000006 cycles: 235145978 cumulative IPC: 0.2126 (Simulation time: 00 hr 19 min 30 sec)

ChampSim completed all CPUs

=== Simulation ===
CPU 0 runs traces/473.astar-359B.champsimtrace.xz

Region of Interest Statistics

CPU 0 cumulative IPC: 0.2126 instructions: 50000006 cycles: 235145978
CPU 0 Branch Prediction Accuracy: 93.2% MPKI: 13.43 Average ROB Occupancy at Mispredict: 43.17
Branch type MPKI
BRANCH_DIRECT_JUMP: 0
BRANCH_INDIRECT: 0
BRANCH_CONDITIONAL: 13.42
BRANCH_DIRECT_CALL: 0
BRANCH_INDIRECT_CALL: 0.00054
BRANCH_RETURN: 0

cpu0->cpu0_STLB TOTAL        ACCESS:    1275600 HIT:     889344 MISS:     386256 MSHR_MERGE:          0
cpu0->cpu0_STLB LOAD         ACCESS:    1275600 HIT:     889344 MISS:     386256 MSHR_MERGE:          0
cpu0->cpu0_STLB RFO          ACCESS:          0 HIT:          0 MISS:          0 MSHR_MERGE:          0
cpu0->cpu0_STLB PREFETCH     ACCESS:          0 HIT:          0 MISS:          0 MSHR_MERGE:          0
cpu0->cpu0_STLB WRITE        ACCESS:          0 HIT:          0 MISS:          0 MSHR_MERGE:          0
cpu0->cpu0_STLB TRANSLATION  ACCESS:          0 HIT:          0 MISS:          0 MSHR_MERGE:          0
cpu0->cpu0_STLB PREFETCH REQUESTED:          0 ISSUED:          0 USEFUL:          0 USELESS:          0
cpu0->cpu0_STLB AVERAGE MISS LATENCY: 542.6 cycles
cpu0->cpu0_L2C TOTAL        ACCESS:    6152857 HIT:    2861854 MISS:    3291003 MSHR_MERGE:      69948
cpu0->cpu0_L2C LOAD         ACCESS:    1775419 HIT:     932216 MISS:     843203 MSHR_MERGE:      22101
cpu0->cpu0_L2C RFO          ACCESS:     767631 HIT:      42570 MISS:     725061 MSHR_MERGE:          0
cpu0->cpu0_L2C PREFETCH     ACCESS:    1791500 HIT:     713159 MISS:    1078341 MSHR_MERGE:      47847
cpu0->cpu0_L2C WRITE        ACCESS:    1168860 HIT:    1168242 MISS:        618 MSHR_MERGE:          0
cpu0->cpu0_L2C TRANSLATION  ACCESS:     649447 HIT:       5667 MISS:     643780 MSHR_MERGE:          0
cpu0->cpu0_L2C PREFETCH REQUESTED:    1791500 ISSUED:    1791500 USEFUL:     312400 USELESS:     719383
cpu0->cpu0_L2C AVERAGE MISS LATENCY: 227.4 cycles
cpu0->cpu0_L1I TOTAL        ACCESS:     633813 HIT:     633806 MISS:          7 MSHR_MERGE:          0
cpu0->cpu0_L1I LOAD         ACCESS:     633813 HIT:     633806 MISS:          7 MSHR_MERGE:          0
cpu0->cpu0_L1I RFO          ACCESS:          0 HIT:          0 MISS:          0 MSHR_MERGE:          0
cpu0->cpu0_L1I PREFETCH     ACCESS:          0 HIT:          0 MISS:          0 MSHR_MERGE:          0
cpu0->cpu0_L1I WRITE        ACCESS:          0 HIT:          0 MISS:          0 MSHR_MERGE:          0
cpu0->cpu0_L1I TRANSLATION  ACCESS:          0 HIT:          0 MISS:          0 MSHR_MERGE:          0
cpu0->cpu0_L1I PREFETCH REQUESTED:          0 ISSUED:          0 USEFUL:          0 USELESS:          0
cpu0->cpu0_L1I AVERAGE MISS LATENCY: 147.9 cycles
cpu0->cpu0_L1D TOTAL        ACCESS:   19769258 HIT:   15979254 MISS:    3790004 MSHR_MERGE:     597511
cpu0->cpu0_L1D LOAD         ACCESS:   12689685 HIT:   10410834 MISS:    2278851 MSHR_MERGE:     503437
cpu0->cpu0_L1D RFO          ACCESS:          0 HIT:          0 MISS:          0 MSHR_MERGE:          0
cpu0->cpu0_L1D PREFETCH     ACCESS:          0 HIT:          0 MISS:          0 MSHR_MERGE:          0
cpu0->cpu0_L1D WRITE        ACCESS:    6302976 HIT:    5535259 MISS:     767717 MSHR_MERGE:         85
cpu0->cpu0_L1D TRANSLATION  ACCESS:     776597 HIT:      33161 MISS:     743436 MSHR_MERGE:      93989
cpu0->cpu0_L1D PREFETCH REQUESTED:          0 ISSUED:          0 USEFUL:          0 USELESS:          0
cpu0->cpu0_L1D AVERAGE MISS LATENCY: 168.1 cycles
cpu0->cpu0_ITLB TOTAL        ACCESS:     630892 HIT:     630892 MISS:          0 MSHR_MERGE:          0
cpu0->cpu0_ITLB LOAD         ACCESS:     630892 HIT:     630892 MISS:          0 MSHR_MERGE:          0
cpu0->cpu0_ITLB RFO          ACCESS:          0 HIT:          0 MISS:          0 MSHR_MERGE:          0
cpu0->cpu0_ITLB PREFETCH     ACCESS:          0 HIT:          0 MISS:          0 MSHR_MERGE:          0
cpu0->cpu0_ITLB WRITE        ACCESS:          0 HIT:          0 MISS:          0 MSHR_MERGE:          0
cpu0->cpu0_ITLB TRANSLATION  ACCESS:          0 HIT:          0 MISS:          0 MSHR_MERGE:          0
cpu0->cpu0_ITLB PREFETCH REQUESTED:          0 ISSUED:          0 USEFUL:          0 USELESS:          0
cpu0->cpu0_ITLB AVERAGE MISS LATENCY: - cycles
cpu0->cpu0_DTLB TOTAL        ACCESS:   18065604 HIT:   16233774 MISS:    1831830 MSHR_MERGE:     556230
cpu0->cpu0_DTLB LOAD         ACCESS:   18065604 HIT:   16233774 MISS:    1831830 MSHR_MERGE:     556230
cpu0->cpu0_DTLB RFO          ACCESS:          0 HIT:          0 MISS:          0 MSHR_MERGE:          0
cpu0->cpu0_DTLB PREFETCH     ACCESS:          0 HIT:          0 MISS:          0 MSHR_MERGE:          0
cpu0->cpu0_DTLB WRITE        ACCESS:          0 HIT:          0 MISS:          0 MSHR_MERGE:          0
cpu0->cpu0_DTLB TRANSLATION  ACCESS:          0 HIT:          0 MISS:          0 MSHR_MERGE:          0
cpu0->cpu0_DTLB PREFETCH REQUESTED:          0 ISSUED:          0 USEFUL:          0 USELESS:          0
cpu0->cpu0_DTLB AVERAGE MISS LATENCY: 168.6 cycles
cpu0->LLC TOTAL        ACCESS:    4347675 HIT:    1067775 MISS:    3279900 MSHR_MERGE:          0
cpu0->LLC LOAD         ACCESS:     821102 HIT:     245754 MISS:     575348 MSHR_MERGE:          0
cpu0->LLC RFO          ACCESS:     725061 HIT:     225545 MISS:     499516 MSHR_MERGE:          0
cpu0->LLC PREFETCH     ACCESS:    1030494 HIT:     102669 MISS:     927825 MSHR_MERGE:          0
cpu0->LLC WRITE        ACCESS:    1127239 HIT:     424837 MISS:     702402 MSHR_MERGE:          0
cpu0->LLC TRANSLATION  ACCESS:     643779 HIT:      68970 MISS:     574809 MSHR_MERGE:          0
cpu0->LLC PREFETCH REQUESTED:          0 ISSUED:          0 USEFUL:          0 USELESS:          0
cpu0->LLC AVERAGE MISS LATENCY: 199.5 cycles

DRAM Statistics

Channel 0 RQ ROW_BUFFER_HIT:      65259
  ROW_BUFFER_MISS:    2509745
  AVG DBUS CONGESTED CYCLE: 18.95
Channel 0 WQ ROW_BUFFER_HIT:     131752
  ROW_BUFFER_MISS:     624423
  FULL:          0
Channel 0 REFRESHES ISSUED:      19595
