[VMEM] WARNING: physical memory size is smaller than virtual memory size.
WARNING: option --warmup_instructions is deprecated. Use --warmup-instructions instead.
WARNING: option --simulation_instructions is deprecated. Use --simulation-instructions instead.

*** ChampSim Multicore Out-of-Order Simulator ***
Warmup Instructions: 20000000
Simulation Instructions: 50000000
Number of CPUs: 1
Page size: 8192

Off-chip DRAM Size: 16 GiB Channels: 1 Width: 64-bit Data Rate: 3205 MT/s
Heartbeat CPU 0 instructions: 10000000 cycles: 4257233 heartbeat IPC: 2.349 cumulative IPC: 2.349 (Simulation time: 00 hr 00 min 39 sec)
Heartbeat CPU 0 instructions: 20000000 cycles: 8506135 heartbeat IPC: 2.354 cumulative IPC: 2.351 (Simulation time: 00 hr 01 min 19 sec)
Warmup finished CPU 0 instructions: 20000000 cycles: 8506135 cumulative IPC: 2.351 (Simulation time: 00 hr 01 min 19 sec)
Warmup complete CPU 0 instructions: 20000000 cycles: 8506135 cumulative IPC: 2.351 (Simulation time: 00 hr 01 min 19 sec)
Heartbeat CPU 0 instructions: 30000003 cycles: 16934417 heartbeat IPC: 1.186 cumulative IPC: 1.186 (Simulation time: 00 hr 02 min 19 sec)
Heartbeat CPU 0 instructions: 40000003 cycles: 25352011 heartbeat IPC: 1.188 cumulative IPC: 1.187 (Simulation time: 00 hr 03 min 19 sec)
Heartbeat CPU 0 instructions: 50000003 cycles: 33781238 heartbeat IPC: 1.186 cumulative IPC: 1.187 (Simulation time: 00 hr 04 min 20 sec)
Heartbeat CPU 0 instructions: 60000005 cycles: 42198700 heartbeat IPC: 1.188 cumulative IPC: 1.187 (Simulation time: 00 hr 05 min 21 sec)
Simulation finished CPU 0 instructions: 50000000 cycles: 42119983 cumulative IPC: 1.187 (Simulation time: 00 hr 06 min 22 sec)
Simulation complete CPU 0 instructions: 50000000 cycles: 42119983 cumulative IPC: 1.187 (Simulation time: 00 hr 06 min 22 sec)

ChampSim completed all CPUs

=== Simulation ===
CPU 0 runs traces/603.bwaves_s-1740B.champsimtrace.xz

Region of Interest Statistics

CPU 0 cumulative IPC: 1.187 instructions: 50000000 cycles: 42119983
CPU 0 Branch Prediction Accuracy: 99.97% MPKI: 0.00734 Average ROB Occupancy at Mispredict: 190.1
Branch type MPKI
BRANCH_DIRECT_JUMP: 0
BRANCH_INDIRECT: 0
BRANCH_CONDITIONAL: 0.00734
BRANCH_DIRECT_CALL: 0
BRANCH_INDIRECT_CALL: 0
BRANCH_RETURN: 0

cpu0->cpu0_STLB TOTAL        ACCESS:       7425 HIT:        365 MISS:       7060 MSHR_MERGE:          0
cpu0->cpu0_STLB LOAD         ACCESS:       7425 HIT:        365 MISS:       7060 MSHR_MERGE:          0
cpu0->cpu0_STLB RFO          ACCESS:          0 HIT:          0 MISS:          0 MSHR_MERGE:          0
cpu0->cpu0_STLB PREFETCH     ACCESS:          0 HIT:          0 MISS:          0 MSHR_MERGE:          0
cpu0->cpu0_STLB WRITE        ACCESS:          0 HIT:          0 MISS:          0 MSHR_MERGE:          0
cpu0->cpu0_STLB TRANSLATION  ACCESS:          0 HIT:          0 MISS:          0 MSHR_MERGE:          0
cpu0->cpu0_STLB PREFETCH REQUESTED:          0 ISSUED:          0 USEFUL:          0 USELESS:          0
cpu0->cpu0_STLB AVERAGE MISS LATENCY: 691.1 cycles
cpu0->cpu0_L2C TOTAL        ACCESS:    3018044 HIT:    1960797 MISS:    1057247 MSHR_MERGE:      88856
cpu0->cpu0_L2C LOAD         ACCESS:    1020276 HIT:     932713 MISS:      87563 MSHR_MERGE:      49307
cpu0->cpu0_L2C RFO          ACCESS:      32814 HIT:       8452 MISS:      24362 MSHR_MERGE:          0
cpu0->cpu0_L2C PREFETCH     ACCESS:    1914800 HIT:     979952 MISS:     934848 MSHR_MERGE:      39549
cpu0->cpu0_L2C WRITE        ACCESS:      36623 HIT:      36575 MISS:         48 MSHR_MERGE:          0
cpu0->cpu0_L2C TRANSLATION  ACCESS:      13531 HIT:       3105 MISS:      10426 MSHR_MERGE:          0
cpu0->cpu0_L2C PREFETCH REQUESTED:    1981928 ISSUED:    1914790 USEFUL:     894873 USELESS:        437
cpu0->cpu0_L2C AVERAGE MISS LATENCY: 160.3 cycles
cpu0->cpu0_L1I TOTAL        ACCESS:   11064967 HIT:   11064967 MISS:          0 MSHR_MERGE:          0
cpu0->cpu0_L1I LOAD         ACCESS:   11064967 HIT:   11064967 MISS:          0 MSHR_MERGE:          0
cpu0->cpu0_L1I RFO          ACCESS:          0 HIT:          0 MISS:          0 MSHR_MERGE:          0
cpu0->cpu0_L1I PREFETCH     ACCESS:          0 HIT:          0 MISS:          0 MSHR_MERGE:          0
cpu0->cpu0_L1I WRITE        ACCESS:          0 HIT:          0 MISS:          0 MSHR_MERGE:          0
cpu0->cpu0_L1I TRANSLATION  ACCESS:          0 HIT:          0 MISS:          0 MSHR_MERGE:          0
cpu0->cpu0_L1I PREFETCH REQUESTED:          0 ISSUED:          0 USEFUL:          0 USELESS:          0
cpu0->cpu0_L1I AVERAGE MISS LATENCY: - cycles
cpu0->cpu0_L1D TOTAL        ACCESS:   16670036 HIT:   15523904 MISS:    1146132 MSHR_MERGE:      79380
cpu0->cpu0_L1D LOAD         ACCESS:   13839308 HIT:   12768296 MISS:    1071012 MSHR_MERGE:      50678
cpu0->cpu0_L1D RFO          ACCESS:          0 HIT:          0 MISS:          0 MSHR_MERGE:          0
cpu0->cpu0_L1D PREFETCH     ACCESS:          0 HIT:          0 MISS:          0 MSHR_MERGE:          0
cpu0->cpu0_L1D WRITE        ACCESS:    2816699 HIT:    2755325 MISS:      61374 MSHR_MERGE:      28487
cpu0->cpu0_L1D TRANSLATION  ACCESS:      14029 HIT:        283 MISS:      13746 MSHR_MERGE:        215
cpu0->cpu0_L1D PREFETCH REQUESTED:          0 ISSUED:          0 USEFUL:          0 USELESS:          0
cpu0->cpu0_L1D AVERAGE MISS LATENCY: 37.94 cycles
cpu0->cpu0_ITLB TOTAL        ACCESS:   10021502 HIT:   10021502 MISS:          0 MSHR_MERGE:          0
cpu0->cpu0_ITLB LOAD         ACCESS:   10021502 HIT:   10021502 MISS:          0 MSHR_MERGE:          0
cpu0->cpu0_ITLB RFO          ACCESS:          0 HIT:          0 MISS:          0 MSHR_MERGE:          0
cpu0->cpu0_ITLB PREFETCH     ACCESS:          0 HIT:          0 MISS:          0 MSHR_MERGE:          0
cpu0->cpu0_ITLB WRITE        ACCESS:          0 HIT:          0 MISS:          0 MSHR_MERGE:          0
cpu0->cpu0_ITLB TRANSLATION  ACCESS:          0 HIT:          0 MISS:          0 MSHR_MERGE:          0
cpu0->cpu0_ITLB PREFETCH REQUESTED:          0 ISSUED:          0 USEFUL:          0 USELESS:          0
cpu0->cpu0_ITLB AVERAGE MISS LATENCY: - cycles
cpu0->cpu0_DTLB TOTAL        ACCESS:   16069361 HIT:   16056653 MISS:      12708 MSHR_MERGE:       5283
cpu0->cpu0_DTLB LOAD         ACCESS:   16069361 HIT:   16056653 MISS:      12708 MSHR_MERGE:       5283
cpu0->cpu0_DTLB RFO          ACCESS:          0 HIT:          0 MISS:          0 MSHR_MERGE:          0
cpu0->cpu0_DTLB PREFETCH     ACCESS:          0 HIT:          0 MISS:          0 MSHR_MERGE:          0
cpu0->cpu0_DTLB WRITE        ACCESS:          0 HIT:          0 MISS:          0 MSHR_MERGE:          0
cpu0->cpu0_DTLB TRANSLATION  ACCESS:          0 HIT:          0 MISS:          0 MSHR_MERGE:          0
cpu0->cpu0_DTLB PREFETCH REQUESTED:          0 ISSUED:          0 USEFUL:          0 USELESS:          0
cpu0->cpu0_DTLB AVERAGE MISS LATENCY: 662.1 cycles
cpu0->LLC TOTAL        ACCESS:     992856 HIT:       4912 MISS:     987944 MSHR_MERGE:          0
cpu0->LLC LOAD         ACCESS:      38256 HIT:        400 MISS:      37856 MSHR_MERGE:          0
cpu0->LLC RFO          ACCESS:      24362 HIT:          0 MISS:      24362 MSHR_MERGE:          0
cpu0->LLC PREFETCH     ACCESS:     895299 HIT:       1843 MISS:     893456 MSHR_MERGE:          0
cpu0->LLC WRITE        ACCESS:      24513 HIT:       2662 MISS:      21851 MSHR_MERGE:          0
cpu0->LLC TRANSLATION  ACCESS:      10426 HIT:          7 MISS:      10419 MSHR_MERGE:          0
cpu0->LLC PREFETCH REQUESTED:          0 ISSUED:          0 USEFUL:          0 USELESS:          0
cpu0->LLC AVERAGE MISS LATENCY: 136.9 cycles

DRAM Statistics

Channel 0 RQ ROW_BUFFER_HIT:        874
  ROW_BUFFER_MISS:     965219
  AVG DBUS CONGESTED CYCLE: 4.201
Channel 0 WQ ROW_BUFFER_HIT:       2506
  ROW_BUFFER_MISS:      21894
  FULL:          0
Channel 0 REFRESHES ISSUED:       3510
