[VMEM] WARNING: physical memory size is smaller than virtual memory size.
WARNING: option --warmup_instructions is deprecated. Use --warmup-instructions instead.
WARNING: option --simulation_instructions is deprecated. Use --simulation-instructions instead.

*** ChampSim Multicore Out-of-Order Simulator ***
Warmup Instructions: 20000000
Simulation Instructions: 50000000
Number of CPUs: 1
Page size: 8192

Off-chip DRAM Size: 16 GiB Channels: 1 Width: 64-bit Data Rate: 3205 MT/s
Heartbeat CPU 0 instructions: 10000001 cycles: 3550706 heartbeat IPC: 2.816 cumulative IPC: 2.816 (Simulation time: 00 hr 00 min 42 sec)
Warmup finished CPU 0 instructions: 20000000 cycles: 7092902 cumulative IPC: 2.82 (Simulation time: 00 hr 01 min 23 sec)
Warmup complete CPU 0 instructions: 20000000 cycles: 7092902 cumulative IPC: 2.82 (Simulation time: 00 hr 01 min 23 sec)
Heartbeat CPU 0 instructions: 20000003 cycles: 7092904 heartbeat IPC: 2.823 cumulative IPC: 1.5 (Simulation time: 00 hr 01 min 23 sec)
Heartbeat CPU 0 instructions: 30000006 cycles: 14087933 heartbeat IPC: 1.43 cumulative IPC: 1.43 (Simulation time: 00 hr 02 min 28 sec)
Heartbeat CPU 0 instructions: 40000008 cycles: 21080136 heartbeat IPC: 1.43 cumulative IPC: 1.43 (Simulation time: 00 hr 03 min 33 sec)
Heartbeat CPU 0 instructions: 50000011 cycles: 28080799 heartbeat IPC: 1.428 cumulative IPC: 1.429 (Simulation time: 00 hr 04 min 37 sec)
Heartbeat CPU 0 instructions: 60000013 cycles: 35080479 heartbeat IPC: 1.429 cumulative IPC: 1.429 (Simulation time: 00 hr 05 min 42 sec)
Simulation finished CPU 0 instructions: 50000000 cycles: 34982887 cumulative IPC: 1.429 (Simulation time: 00 hr 06 min 46 sec)
Simulation complete CPU 0 instructions: 50000000 cycles: 34982887 cumulative IPC: 1.429 (Simulation time: 00 hr 06 min 46 sec)

ChampSim completed all CPUs

=== Simulation ===
CPU 0 runs traces/603.bwaves_s-1740B.champsimtrace.xz

Region of Interest Statistics

CPU 0 cumulative IPC: 1.429 instructions: 50000000 cycles: 34982887
CPU 0 Branch Prediction Accuracy: 99.97% MPKI: 0.00734 Average ROB Occupancy at Mispredict: 189.9
Branch type MPKI
BRANCH_DIRECT_JUMP: 0
BRANCH_INDIRECT: 0
BRANCH_CONDITIONAL: 0.00734
BRANCH_DIRECT_CALL: 0
BRANCH_INDIRECT_CALL: 0
BRANCH_RETURN: 0

cpu0->cpu0_STLB TOTAL        ACCESS:       7425 HIT:        365 MISS:       7060 MSHR_MERGE:          0
cpu0->cpu0_STLB LOAD         ACCESS:       7425 HIT:        365 MISS:       7060 MSHR_MERGE:          0
cpu0->cpu0_STLB RFO          ACCESS:          0 HIT:          0 MISS:          0 MSHR_MERGE:          0
cpu0->cpu0_STLB PREFETCH     ACCESS:          0 HIT:          0 MISS:          0 MSHR_MERGE:          0
cpu0->cpu0_STLB WRITE        ACCESS:          0 HIT:          0 MISS:          0 MSHR_MERGE:          0
cpu0->cpu0_STLB TRANSLATION  ACCESS:          0 HIT:          0 MISS:          0 MSHR_MERGE:          0
cpu0->cpu0_STLB PREFETCH REQUESTED:          0 ISSUED:          0 USEFUL:          0 USELESS:          0
cpu0->cpu0_STLB AVERAGE MISS LATENCY: 702.8 cycles
cpu0->cpu0_L2C TOTAL        ACCESS:    2148150 HIT:    1566647 MISS:     581503 MSHR_MERGE:      70223
cpu0->cpu0_L2C LOAD         ACCESS:     505388 HIT:     488585 MISS:      16803 MSHR_MERGE:       2020
cpu0->cpu0_L2C RFO          ACCESS:      17520 HIT:       5339 MISS:      12181 MSHR_MERGE:          0
cpu0->cpu0_L2C PREFETCH     ACCESS:    1592893 HIT:    1050388 MISS:     542505 MSHR_MERGE:      68203
cpu0->cpu0_L2C WRITE        ACCESS:      19658 HIT:      19636 MISS:         22 MSHR_MERGE:          0
cpu0->cpu0_L2C TRANSLATION  ACCESS:      12691 HIT:       2699 MISS:       9992 MSHR_MERGE:          0
cpu0->cpu0_L2C PREFETCH REQUESTED:    1715458 ISSUED:    1592883 USEFUL:     448340 USELESS:      25951
cpu0->cpu0_L2C AVERAGE MISS LATENCY: 207.1 cycles
cpu0->cpu0_L1I TOTAL        ACCESS:   10014545 HIT:   10014545 MISS:          0 MSHR_MERGE:          0
cpu0->cpu0_L1I LOAD         ACCESS:   10014545 HIT:   10014545 MISS:          0 MSHR_MERGE:          0
cpu0->cpu0_L1I RFO          ACCESS:          0 HIT:          0 MISS:          0 MSHR_MERGE:          0
cpu0->cpu0_L1I PREFETCH     ACCESS:          0 HIT:          0 MISS:          0 MSHR_MERGE:          0
cpu0->cpu0_L1I WRITE        ACCESS:          0 HIT:          0 MISS:          0 MSHR_MERGE:          0
cpu0->cpu0_L1I TRANSLATION  ACCESS:          0 HIT:          0 MISS:          0 MSHR_MERGE:          0
cpu0->cpu0_L1I PREFETCH REQUESTED:          0 ISSUED:          0 USEFUL:          0 USELESS:          0
cpu0->cpu0_L1I AVERAGE MISS LATENCY: - cycles
cpu0->cpu0_L1D TOTAL        ACCESS:   15334171 HIT:   14766790 MISS:     567381 MSHR_MERGE:      31741
cpu0->cpu0_L1D LOAD         ACCESS:   12503437 HIT:   11988653 MISS:     514784 MSHR_MERGE:       9387
cpu0->cpu0_L1D RFO          ACCESS:          0 HIT:          0 MISS:          0 MSHR_MERGE:          0
cpu0->cpu0_L1D PREFETCH     ACCESS:          0 HIT:          0 MISS:          0 MSHR_MERGE:          0
cpu0->cpu0_L1D WRITE        ACCESS:    2816699 HIT:    2777013 MISS:      39686 MSHR_MERGE:      22134
cpu0->cpu0_L1D TRANSLATION  ACCESS:      14035 HIT:       1124 MISS:      12911 MSHR_MERGE:        220
cpu0->cpu0_L1D PREFETCH REQUESTED:          0 ISSUED:          0 USEFUL:          0 USELESS:          0
cpu0->cpu0_L1D AVERAGE MISS LATENCY: 23.39 cycles
cpu0->cpu0_ITLB TOTAL        ACCESS:    9743484 HIT:    9743484 MISS:          0 MSHR_MERGE:          0
cpu0->cpu0_ITLB LOAD         ACCESS:    9743484 HIT:    9743484 MISS:          0 MSHR_MERGE:          0
cpu0->cpu0_ITLB RFO          ACCESS:          0 HIT:          0 MISS:          0 MSHR_MERGE:          0
cpu0->cpu0_ITLB PREFETCH     ACCESS:          0 HIT:          0 MISS:          0 MSHR_MERGE:          0
cpu0->cpu0_ITLB WRITE        ACCESS:          0 HIT:          0 MISS:          0 MSHR_MERGE:          0
cpu0->cpu0_ITLB TRANSLATION  ACCESS:          0 HIT:          0 MISS:          0 MSHR_MERGE:          0
cpu0->cpu0_ITLB PREFETCH REQUESTED:          0 ISSUED:          0 USEFUL:          0 USELESS:          0
cpu0->cpu0_ITLB AVERAGE MISS LATENCY: - cycles
cpu0->cpu0_DTLB TOTAL        ACCESS:   14791189 HIT:   14778273 MISS:      12916 MSHR_MERGE:       5491
cpu0->cpu0_DTLB LOAD         ACCESS:   14791189 HIT:   14778273 MISS:      12916 MSHR_MERGE:       5491
cpu0->cpu0_DTLB RFO          ACCESS:          0 HIT:          0 MISS:          0 MSHR_MERGE:          0
cpu0->cpu0_DTLB PREFETCH     ACCESS:          0 HIT:          0 MISS:          0 MSHR_MERGE:          0
cpu0->cpu0_DTLB WRITE        ACCESS:          0 HIT:          0 MISS:          0 MSHR_MERGE:          0
cpu0->cpu0_DTLB TRANSLATION  ACCESS:          0 HIT:          0 MISS:          0 MSHR_MERGE:          0
cpu0->cpu0_DTLB PREFETCH REQUESTED:          0 ISSUED:          0 USEFUL:          0 USELESS:          0
cpu0->cpu0_DTLB AVERAGE MISS LATENCY: 673.2 cycles
cpu0->LLC TOTAL        ACCESS:     523453 HIT:       2929 MISS:     520524 MSHR_MERGE:          0
cpu0->LLC LOAD         ACCESS:      14783 HIT:         40 MISS:      14743 MSHR_MERGE:          0
cpu0->LLC RFO          ACCESS:      12181 HIT:          0 MISS:      12181 MSHR_MERGE:          0
cpu0->LLC PREFETCH     ACCESS:     474302 HIT:       1558 MISS:     472744 MSHR_MERGE:          0
cpu0->LLC WRITE        ACCESS:      12195 HIT:       1327 MISS:      10868 MSHR_MERGE:          0
cpu0->LLC TRANSLATION  ACCESS:       9992 HIT:          4 MISS:       9988 MSHR_MERGE:          0
cpu0->LLC PREFETCH REQUESTED:          0 ISSUED:          0 USEFUL:          0 USELESS:          0
cpu0->LLC AVERAGE MISS LATENCY: 151.5 cycles

DRAM Statistics

Channel 0 RQ ROW_BUFFER_HIT:        819
  ROW_BUFFER_MISS:     508836
  AVG DBUS CONGESTED CYCLE: 7.472
Channel 0 WQ ROW_BUFFER_HIT:        882
  ROW_BUFFER_MISS:      11332
  FULL:          0
Channel 0 REFRESHES ISSUED:       2915
