[VMEM] WARNING: physical memory size is smaller than virtual memory size.
WARNING: option --warmup_instructions is deprecated. Use --warmup-instructions instead.
WARNING: option --simulation_instructions is deprecated. Use --simulation-instructions instead.

*** ChampSim Multicore Out-of-Order Simulator ***
Warmup Instructions: 20000000
Simulation Instructions: 50000000
Number of CPUs: 1
Page size: 8192

Off-chip DRAM Size: 16 GiB Channels: 1 Width: 64-bit Data Rate: 3205 MT/s
Heartbeat CPU 0 instructions: 10000000 cycles: 8240475 heartbeat IPC: 1.214 cumulative IPC: 1.214 (Simulation time: 00 hr 01 min 16 sec)
Heartbeat CPU 0 instructions: 20000000 cycles: 15267827 heartbeat IPC: 1.423 cumulative IPC: 1.31 (Simulation time: 00 hr 02 min 23 sec)
Warmup finished CPU 0 instructions: 20000000 cycles: 15267827 cumulative IPC: 1.31 (Simulation time: 00 hr 02 min 23 sec)
Warmup complete CPU 0 instructions: 20000000 cycles: 15267827 cumulative IPC: 1.31 (Simulation time: 00 hr 02 min 23 sec)
Heartbeat CPU 0 instructions: 30000002 cycles: 43546764 heartbeat IPC: 0.3536 cumulative IPC: 0.3536 (Simulation time: 00 hr 04 min 53 sec)
Heartbeat CPU 0 instructions: 40000004 cycles: 71953845 heartbeat IPC: 0.352 cumulative IPC: 0.3528 (Simulation time: 00 hr 07 min 29 sec)
Heartbeat CPU 0 instructions: 50000004 cycles: 100380843 heartbeat IPC: 0.3518 cumulative IPC: 0.3525 (Simulation time: 00 hr 10 min 05 sec)
Heartbeat CPU 0 instructions: 60000007 cycles: 127251568 heartbeat IPC: 0.3722 cumulative IPC: 0.3572 (Simulation time: 00 hr 12 min 29 sec)
Simulation finished CPU 0 instructions: 50000000 cycles: 138077263 cumulative IPC: 0.3621 (Simulation time: 00 hr 14 min 54 sec)
Simulation complete CPU 0 instructions: 50000000 cycles: 138077263 cumulative IPC: 0.3621 (Simulation time: 00 hr 14 min 54 sec)

ChampSim completed all CPUs

=== Simulation ===
CPU 0 runs traces/620.omnetpp_s-874B.champsimtrace.xz

Region of Interest Statistics

CPU 0 cumulative IPC: 0.3621 instructions: 50000000 cycles: 138077263
CPU 0 Branch Prediction Accuracy: 96.16% MPKI: 7.99 Average ROB Occupancy at Mispredict: 58.93
Branch type MPKI
BRANCH_DIRECT_JUMP: 0.9384
BRANCH_INDIRECT: 0.1208
BRANCH_CONDITIONAL: 5.805
BRANCH_DIRECT_CALL: 0.00236
BRANCH_INDIRECT_CALL: 0.7298
BRANCH_RETURN: 0.3936

cpu0->cpu0_STLB TOTAL        ACCESS:     827746 HIT:     690650 MISS:     137096 MSHR_MERGE:          0
cpu0->cpu0_STLB LOAD         ACCESS:     827746 HIT:     690650 MISS:     137096 MSHR_MERGE:          0
cpu0->cpu0_STLB RFO          ACCESS:          0 HIT:          0 MISS:          0 MSHR_MERGE:          0
cpu0->cpu0_STLB PREFETCH     ACCESS:          0 HIT:          0 MISS:          0 MSHR_MERGE:          0
cpu0->cpu0_STLB WRITE        ACCESS:          0 HIT:          0 MISS:          0 MSHR_MERGE:          0
cpu0->cpu0_STLB TRANSLATION  ACCESS:          0 HIT:          0 MISS:          0 MSHR_MERGE:          0
cpu0->cpu0_STLB PREFETCH REQUESTED:          0 ISSUED:          0 USEFUL:          0 USELESS:          0
cpu0->cpu0_STLB AVERAGE MISS LATENCY: 335.3 cycles
cpu0->cpu0_L2C TOTAL        ACCESS:    2802259 HIT:    1244664 MISS:    1557595 MSHR_MERGE:     112137
cpu0->cpu0_L2C LOAD         ACCESS:     933774 HIT:     360245 MISS:     573529 MSHR_MERGE:      19851
cpu0->cpu0_L2C RFO          ACCESS:     139209 HIT:      60834 MISS:      78375 MSHR_MERGE:       2476
cpu0->cpu0_L2C PREFETCH     ACCESS:     927153 HIT:     299010 MISS:     628143 MSHR_MERGE:      89810
cpu0->cpu0_L2C WRITE        ACCESS:     508769 HIT:     505944 MISS:       2825 MSHR_MERGE:          0
cpu0->cpu0_L2C TRANSLATION  ACCESS:     293354 HIT:      18631 MISS:     274723 MSHR_MERGE:          0
cpu0->cpu0_L2C PREFETCH REQUESTED:     927153 ISSUED:     927153 USEFUL:     165994 USELESS:     372316
cpu0->cpu0_L2C AVERAGE MISS LATENCY: 138.2 cycles
cpu0->cpu0_L1I TOTAL        ACCESS:    7857354 HIT:    7832115 MISS:      25239 MSHR_MERGE:       6773
cpu0->cpu0_L1I LOAD         ACCESS:    7857354 HIT:    7832115 MISS:      25239 MSHR_MERGE:       6773
cpu0->cpu0_L1I RFO          ACCESS:          0 HIT:          0 MISS:          0 MSHR_MERGE:          0
cpu0->cpu0_L1I PREFETCH     ACCESS:          0 HIT:          0 MISS:          0 MSHR_MERGE:          0
cpu0->cpu0_L1I WRITE        ACCESS:          0 HIT:          0 MISS:          0 MSHR_MERGE:          0
cpu0->cpu0_L1I TRANSLATION  ACCESS:          0 HIT:          0 MISS:          0 MSHR_MERGE:          0
cpu0->cpu0_L1I PREFETCH REQUESTED:          0 ISSUED:          0 USEFUL:          0 USELESS:          0
cpu0->cpu0_L1I AVERAGE MISS LATENCY: 25.74 cycles
cpu0->cpu0_L1D TOTAL        ACCESS:   18761680 HIT:   17012984 MISS:    1748696 MSHR_MERGE:     400815
cpu0->cpu0_L1D LOAD         ACCESS:    9417010 HIT:    8309619 MISS:    1107391 MSHR_MERGE:     192082
cpu0->cpu0_L1D RFO          ACCESS:          0 HIT:          0 MISS:          0 MSHR_MERGE:          0
cpu0->cpu0_L1D PREFETCH     ACCESS:          0 HIT:          0 MISS:          0 MSHR_MERGE:          0
cpu0->cpu0_L1D WRITE        ACCESS:    9043405 HIT:    8695769 MISS:     347636 MSHR_MERGE:     208418
cpu0->cpu0_L1D TRANSLATION  ACCESS:     301265 HIT:       7596 MISS:     293669 MSHR_MERGE:        315
cpu0->cpu0_L1D PREFETCH REQUESTED:          0 ISSUED:          0 USEFUL:          0 USELESS:          0
cpu0->cpu0_L1D AVERAGE MISS LATENCY: 103.8 cycles
cpu0->cpu0_ITLB TOTAL        ACCESS:    7194814 HIT:    7194609 MISS:        205 MSHR_MERGE:        101
cpu0->cpu0_ITLB LOAD         ACCESS:    7194814 HIT:    7194609 MISS:        205 MSHR_MERGE:        101
cpu0->cpu0_ITLB RFO          ACCESS:          0 HIT:          0 MISS:          0 MSHR_MERGE:          0
cpu0->cpu0_ITLB PREFETCH     ACCESS:          0 HIT:          0 MISS:          0 MSHR_MERGE:          0
cpu0->cpu0_ITLB WRITE        ACCESS:          0 HIT:          0 MISS:          0 MSHR_MERGE:          0
cpu0->cpu0_ITLB TRANSLATION  ACCESS:          0 HIT:          0 MISS:          0 MSHR_MERGE:          0
cpu0->cpu0_ITLB PREFETCH REQUESTED:          0 ISSUED:          0 USEFUL:          0 USELESS:          0
cpu0->cpu0_ITLB AVERAGE MISS LATENCY: 190.8 cycles
cpu0->cpu0_DTLB TOTAL        ACCESS:   17189433 HIT:   16244175 MISS:     945258 MSHR_MERGE:     117616
cpu0->cpu0_DTLB LOAD         ACCESS:   17189433 HIT:   16244175 MISS:     945258 MSHR_MERGE:     117616
cpu0->cpu0_DTLB RFO          ACCESS:          0 HIT:          0 MISS:          0 MSHR_MERGE:          0
cpu0->cpu0_DTLB PREFETCH     ACCESS:          0 HIT:          0 MISS:          0 MSHR_MERGE:          0
cpu0->cpu0_DTLB WRITE        ACCESS:          0 HIT:          0 MISS:          0 MSHR_MERGE:          0
cpu0->cpu0_DTLB TRANSLATION  ACCESS:          0 HIT:          0 MISS:          0 MSHR_MERGE:          0
cpu0->cpu0_DTLB PREFETCH REQUESTED:          0 ISSUED:          0 USEFUL:          0 USELESS:          0
cpu0->cpu0_DTLB AVERAGE MISS LATENCY: 59.69 cycles
cpu0->LLC TOTAL        ACCESS:    1838890 HIT:     441953 MISS:    1396937 MSHR_MERGE:          0
cpu0->LLC LOAD         ACCESS:     553678 HIT:     125315 MISS:     428363 MSHR_MERGE:          0
cpu0->LLC RFO          ACCESS:      75899 HIT:      13231 MISS:      62668 MSHR_MERGE:          0
cpu0->LLC PREFETCH     ACCESS:     538333 HIT:     109049 MISS:     429284 MSHR_MERGE:          0
cpu0->LLC WRITE        ACCESS:     396257 HIT:     140935 MISS:     255322 MSHR_MERGE:          0
cpu0->LLC TRANSLATION  ACCESS:     274723 HIT:      53423 MISS:     221300 MSHR_MERGE:          0
cpu0->LLC PREFETCH REQUESTED:          0 ISSUED:          0 USEFUL:          0 USELESS:          0
cpu0->LLC AVERAGE MISS LATENCY: 116.5 cycles

DRAM Statistics

Channel 0 RQ ROW_BUFFER_HIT:      21348
  ROW_BUFFER_MISS:    1120182
  AVG DBUS CONGESTED CYCLE: 21.27
Channel 0 WQ ROW_BUFFER_HIT:      79380
  ROW_BUFFER_MISS:     207739
  FULL:          0
Channel 0 REFRESHES ISSUED:      11506
