[VMEM] WARNING: physical memory size is smaller than virtual memory size.
WARNING: option --warmup_instructions is deprecated. Use --warmup-instructions instead.
WARNING: option --simulation_instructions is deprecated. Use --simulation-instructions instead.

*** ChampSim Multicore Out-of-Order Simulator ***
Warmup Instructions: 20000000
Simulation Instructions: 50000000
Number of CPUs: 1
Page size: 8192

Off-chip DRAM Size: 16 GiB Channels: 1 Width: 64-bit Data Rate: 3205 MT/s
Heartbeat CPU 0 instructions: 10000000 cycles: 4301737 heartbeat IPC: 2.325 cumulative IPC: 2.325 (Simulation time: 00 hr 00 min 55 sec)
Heartbeat CPU 0 instructions: 20000000 cycles: 8595677 heartbeat IPC: 2.329 cumulative IPC: 2.327 (Simulation time: 00 hr 01 min 51 sec)
Warmup finished CPU 0 instructions: 20000000 cycles: 8595677 cumulative IPC: 2.327 (Simulation time: 00 hr 01 min 51 sec)
Warmup complete CPU 0 instructions: 20000000 cycles: 8595677 cumulative IPC: 2.327 (Simulation time: 00 hr 01 min 51 sec)
Heartbeat CPU 0 instructions: 30000003 cycles: 17104949 heartbeat IPC: 1.175 cumulative IPC: 1.175 (Simulation time: 00 hr 03 min 14 sec)
Heartbeat CPU 0 instructions: 40000003 cycles: 25611371 heartbeat IPC: 1.176 cumulative IPC: 1.175 (Simulation time: 00 hr 04 min 37 sec)
Heartbeat CPU 0 instructions: 50000003 cycles: 34125849 heartbeat IPC: 1.174 cumulative IPC: 1.175 (Simulation time: 00 hr 05 min 47 sec)
Heartbeat CPU 0 instructions: 60000005 cycles: 42649536 heartbeat IPC: 1.173 cumulative IPC: 1.175 (Simulation time: 00 hr 06 min 57 sec)
Simulation finished CPU 0 instructions: 50000001 cycles: 42570138 cumulative IPC: 1.175 (Simulation time: 00 hr 08 min 06 sec)
Simulation complete CPU 0 instructions: 50000001 cycles: 42570138 cumulative IPC: 1.175 (Simulation time: 00 hr 08 min 06 sec)

ChampSim completed all CPUs

=== Simulation ===
CPU 0 runs traces/603.bwaves_s-1740B.champsimtrace.xz

Region of Interest Statistics

CPU 0 cumulative IPC: 1.175 instructions: 50000001 cycles: 42570138
CPU 0 Branch Prediction Accuracy: 99.97% MPKI: 0.00734 Average ROB Occupancy at Mispredict: 190.1
Branch type MPKI
BRANCH_DIRECT_JUMP: 0
BRANCH_INDIRECT: 0
BRANCH_CONDITIONAL: 0.00734
BRANCH_DIRECT_CALL: 0
BRANCH_INDIRECT_CALL: 0
BRANCH_RETURN: 0

cpu0->cpu0_STLB TOTAL        ACCESS:       7425 HIT:        365 MISS:       7060 MSHR_MERGE:          0
cpu0->cpu0_STLB LOAD         ACCESS:       7425 HIT:        365 MISS:       7060 MSHR_MERGE:          0
cpu0->cpu0_STLB RFO          ACCESS:          0 HIT:          0 MISS:          0 MSHR_MERGE:          0
cpu0->cpu0_STLB PREFETCH     ACCESS:          0 HIT:          0 MISS:          0 MSHR_MERGE:          0
cpu0->cpu0_STLB WRITE        ACCESS:          0 HIT:          0 MISS:          0 MSHR_MERGE:          0
cpu0->cpu0_STLB TRANSLATION  ACCESS:          0 HIT:          0 MISS:          0 MSHR_MERGE:          0
cpu0->cpu0_STLB PREFETCH REQUESTED:          0 ISSUED:          0 USEFUL:          0 USELESS:          0
cpu0->cpu0_STLB AVERAGE MISS LATENCY: 692.6 cycles
cpu0->cpu0_L2C TOTAL        ACCESS:    3100320 HIT:    1812350 MISS:    1287970 MSHR_MERGE:     320273
cpu0->cpu0_L2C LOAD         ACCESS:    1019981 HIT:     875515 MISS:     144466 MSHR_MERGE:     125797
cpu0->cpu0_L2C RFO          ACCESS:      32703 HIT:       8341 MISS:      24362 MSHR_MERGE:          0
cpu0->cpu0_L2C PREFETCH     ACCESS:    1997517 HIT:     888884 MISS:    1108633 MSHR_MERGE:     194476
cpu0->cpu0_L2C WRITE        ACCESS:      36534 HIT:      36498 MISS:         36 MSHR_MERGE:          0
cpu0->cpu0_L2C TRANSLATION  ACCESS:      13585 HIT:       3112 MISS:      10473 MSHR_MERGE:          0
cpu0->cpu0_L2C PREFETCH REQUESTED:    2037130 ISSUED:    1997508 USEFUL:     913874 USELESS:        288
cpu0->cpu0_L2C AVERAGE MISS LATENCY: 132.2 cycles
cpu0->cpu0_L1I TOTAL        ACCESS:   10934984 HIT:   10934984 MISS:          0 MSHR_MERGE:          0
cpu0->cpu0_L1I LOAD         ACCESS:   10934984 HIT:   10934984 MISS:          0 MSHR_MERGE:          0
cpu0->cpu0_L1I RFO          ACCESS:          0 HIT:          0 MISS:          0 MSHR_MERGE:          0
cpu0->cpu0_L1I PREFETCH     ACCESS:          0 HIT:          0 MISS:          0 MSHR_MERGE:          0
cpu0->cpu0_L1I WRITE        ACCESS:          0 HIT:          0 MISS:          0 MSHR_MERGE:          0
cpu0->cpu0_L1I TRANSLATION  ACCESS:          0 HIT:          0 MISS:          0 MSHR_MERGE:          0
cpu0->cpu0_L1I PREFETCH REQUESTED:          0 ISSUED:          0 USEFUL:          0 USELESS:          0
cpu0->cpu0_L1I AVERAGE MISS LATENCY: - cycles
cpu0->cpu0_L1D TOTAL        ACCESS:   16928742 HIT:   15783826 MISS:    1144916 MSHR_MERGE:      78489
cpu0->cpu0_L1D LOAD         ACCESS:   14097992 HIT:   13026005 MISS:    1071987 MSHR_MERGE:      51956
cpu0->cpu0_L1D RFO          ACCESS:          0 HIT:          0 MISS:          0 MSHR_MERGE:          0
cpu0->cpu0_L1D PREFETCH     ACCESS:          0 HIT:          0 MISS:          0 MSHR_MERGE:          0
cpu0->cpu0_L1D WRITE        ACCESS:    2816699 HIT:    2757542 MISS:      59157 MSHR_MERGE:      26346
cpu0->cpu0_L1D TRANSLATION  ACCESS:      14051 HIT:        279 MISS:      13772 MSHR_MERGE:        187
cpu0->cpu0_L1D PREFETCH REQUESTED:          0 ISSUED:          0 USEFUL:          0 USELESS:          0
cpu0->cpu0_L1D AVERAGE MISS LATENCY: 39.27 cycles
cpu0->cpu0_ITLB TOTAL        ACCESS:    9696222 HIT:    9696222 MISS:          0 MSHR_MERGE:          0
cpu0->cpu0_ITLB LOAD         ACCESS:    9696222 HIT:    9696222 MISS:          0 MSHR_MERGE:          0
cpu0->cpu0_ITLB RFO          ACCESS:          0 HIT:          0 MISS:          0 MSHR_MERGE:          0
cpu0->cpu0_ITLB PREFETCH     ACCESS:          0 HIT:          0 MISS:          0 MSHR_MERGE:          0
cpu0->cpu0_ITLB WRITE        ACCESS:          0 HIT:          0 MISS:          0 MSHR_MERGE:          0
cpu0->cpu0_ITLB TRANSLATION  ACCESS:          0 HIT:          0 MISS:          0 MSHR_MERGE:          0
cpu0->cpu0_ITLB PREFETCH REQUESTED:          0 ISSUED:          0 USEFUL:          0 USELESS:          0
cpu0->cpu0_ITLB AVERAGE MISS LATENCY: - cycles
cpu0->cpu0_DTLB TOTAL        ACCESS:   16262289 HIT:   16249513 MISS:      12776 MSHR_MERGE:       5351
cpu0->cpu0_DTLB LOAD         ACCESS:   16262289 HIT:   16249513 MISS:      12776 MSHR_MERGE:       5351
cpu0->cpu0_DTLB RFO          ACCESS:          0 HIT:          0 MISS:          0 MSHR_MERGE:          0
cpu0->cpu0_DTLB PREFETCH     ACCESS:          0 HIT:          0 MISS:          0 MSHR_MERGE:          0
cpu0->cpu0_DTLB WRITE        ACCESS:          0 HIT:          0 MISS:          0 MSHR_MERGE:          0
cpu0->cpu0_DTLB TRANSLATION  ACCESS:          0 HIT:          0 MISS:          0 MSHR_MERGE:          0
cpu0->cpu0_DTLB PREFETCH REQUESTED:          0 ISSUED:          0 USEFUL:          0 USELESS:          0
cpu0->cpu0_DTLB AVERAGE MISS LATENCY: 663.5 cycles
cpu0->LLC TOTAL        ACCESS:     992186 HIT:       4375 MISS:     987811 MSHR_MERGE:          0
cpu0->LLC LOAD         ACCESS:      18669 HIT:        275 MISS:      18394 MSHR_MERGE:          0
cpu0->LLC RFO          ACCESS:      24362 HIT:          0 MISS:      24362 MSHR_MERGE:          0
cpu0->LLC PREFETCH     ACCESS:     914157 HIT:       1655 MISS:     912502 MSHR_MERGE:          0
cpu0->LLC WRITE        ACCESS:      24525 HIT:       2441 MISS:      22084 MSHR_MERGE:          0
cpu0->LLC TRANSLATION  ACCESS:      10473 HIT:          4 MISS:      10469 MSHR_MERGE:          0
cpu0->LLC PREFETCH REQUESTED:          0 ISSUED:          0 USEFUL:          0 USELESS:          0
cpu0->LLC AVERAGE MISS LATENCY: 121 cycles

DRAM Statistics

Channel 0 RQ ROW_BUFFER_HIT:        652
  ROW_BUFFER_MISS:     965075
  AVG DBUS CONGESTED CYCLE: 4.088
Channel 0 WQ ROW_BUFFER_HIT:       2178
  ROW_BUFFER_MISS:      22140
  FULL:          0
Channel 0 REFRESHES ISSUED:       3547
