[VMEM] WARNING: physical memory size is smaller than virtual memory size.

*** ChampSim Multicore Out-of-Order Simulator ***
Warmup Instructions: 100000000
Simulation Instructions: 500000000
Number of CPUs: 1
Page size: 4096

Off-chip DRAM Size: 16 GiB Channels: 1 Width: 64-bit Data Rate: 3205 MT/s
Heartbeat CPU 0 instructions: 10000001 cycles: 2964678 heartbeat IPC: 3.373 cumulative IPC: 3.373 (Simulation time: 00 hr 01 min 11 sec)
Heartbeat CPU 0 instructions: 20000002 cycles: 5927464 heartbeat IPC: 3.375 cumulative IPC: 3.374 (Simulation time: 00 hr 02 min 21 sec)
Heartbeat CPU 0 instructions: 30000002 cycles: 8876937 heartbeat IPC: 3.39 cumulative IPC: 3.38 (Simulation time: 00 hr 03 min 29 sec)
Heartbeat CPU 0 instructions: 40000005 cycles: 11835617 heartbeat IPC: 3.38 cumulative IPC: 3.38 (Simulation time: 00 hr 04 min 40 sec)
Heartbeat CPU 0 instructions: 50000007 cycles: 14797199 heartbeat IPC: 3.377 cumulative IPC: 3.379 (Simulation time: 00 hr 05 min 47 sec)
Heartbeat CPU 0 instructions: 60000011 cycles: 17682500 heartbeat IPC: 3.466 cumulative IPC: 3.393 (Simulation time: 00 hr 06 min 55 sec)
Heartbeat CPU 0 instructions: 70000011 cycles: 20518329 heartbeat IPC: 3.526 cumulative IPC: 3.412 (Simulation time: 00 hr 08 min 05 sec)
Heartbeat CPU 0 instructions: 80000011 cycles: 23354331 heartbeat IPC: 3.526 cumulative IPC: 3.425 (Simulation time: 00 hr 09 min 15 sec)
Heartbeat CPU 0 instructions: 90000011 cycles: 26191622 heartbeat IPC: 3.524 cumulative IPC: 3.436 (Simulation time: 00 hr 10 min 24 sec)
Warmup finished CPU 0 instructions: 100000003 cycles: 29028819 cumulative IPC: 3.445 (Simulation time: 00 hr 11 min 33 sec)
Warmup complete CPU 0 instructions: 100000003 cycles: 29028819 cumulative IPC: 3.445 (Simulation time: 00 hr 11 min 33 sec)
Heartbeat CPU 0 instructions: 100000013 cycles: 29028821 heartbeat IPC: 3.525 cumulative IPC: 5 (Simulation time: 00 hr 11 min 33 sec)
Heartbeat CPU 0 instructions: 110000014 cycles: 36798333 heartbeat IPC: 1.287 cumulative IPC: 1.287 (Simulation time: 00 hr 13 min 33 sec)
Heartbeat CPU 0 instructions: 120000017 cycles: 44821336 heartbeat IPC: 1.246 cumulative IPC: 1.266 (Simulation time: 00 hr 15 min 33 sec)
Heartbeat CPU 0 instructions: 130000020 cycles: 52501852 heartbeat IPC: 1.302 cumulative IPC: 1.278 (Simulation time: 00 hr 17 min 32 sec)
Heartbeat CPU 0 instructions: 140000022 cycles: 60131484 heartbeat IPC: 1.311 cumulative IPC: 1.286 (Simulation time: 00 hr 19 min 33 sec)
Heartbeat CPU 0 instructions: 150000024 cycles: 67851408 heartbeat IPC: 1.295 cumulative IPC: 1.288 (Simulation time: 00 hr 21 min 39 sec)
Heartbeat CPU 0 instructions: 160000025 cycles: 75479755 heartbeat IPC: 1.311 cumulative IPC: 1.292 (Simulation time: 00 hr 23 min 39 sec)
Heartbeat CPU 0 instructions: 170000025 cycles: 83109704 heartbeat IPC: 1.311 cumulative IPC: 1.294 (Simulation time: 00 hr 25 min 37 sec)
Heartbeat CPU 0 instructions: 180000026 cycles: 90838454 heartbeat IPC: 1.294 cumulative IPC: 1.294 (Simulation time: 00 hr 27 min 36 sec)
Heartbeat CPU 0 instructions: 190000030 cycles: 98500979 heartbeat IPC: 1.305 cumulative IPC: 1.295 (Simulation time: 00 hr 29 min 37 sec)
Heartbeat CPU 0 instructions: 200000031 cycles: 106014688 heartbeat IPC: 1.331 cumulative IPC: 1.299 (Simulation time: 00 hr 31 min 38 sec)
Heartbeat CPU 0 instructions: 210000034 cycles: 113798789 heartbeat IPC: 1.285 cumulative IPC: 1.298 (Simulation time: 00 hr 33 min 35 sec)
Heartbeat CPU 0 instructions: 220000034 cycles: 121407811 heartbeat IPC: 1.314 cumulative IPC: 1.299 (Simulation time: 00 hr 35 min 32 sec)
Heartbeat CPU 0 instructions: 230000034 cycles: 128911459 heartbeat IPC: 1.333 cumulative IPC: 1.302 (Simulation time: 00 hr 37 min 28 sec)
Heartbeat CPU 0 instructions: 240000034 cycles: 136564317 heartbeat IPC: 1.307 cumulative IPC: 1.302 (Simulation time: 00 hr 39 min 25 sec)
Heartbeat CPU 0 instructions: 250000034 cycles: 144221492 heartbeat IPC: 1.306 cumulative IPC: 1.302 (Simulation time: 00 hr 41 min 22 sec)
Heartbeat CPU 0 instructions: 260000034 cycles: 151868951 heartbeat IPC: 1.308 cumulative IPC: 1.303 (Simulation time: 00 hr 43 min 19 sec)
Heartbeat CPU 0 instructions: 270000036 cycles: 159461728 heartbeat IPC: 1.317 cumulative IPC: 1.303 (Simulation time: 00 hr 45 min 16 sec)
Heartbeat CPU 0 instructions: 280000036 cycles: 166924783 heartbeat IPC: 1.34 cumulative IPC: 1.305 (Simulation time: 00 hr 47 min 11 sec)
Heartbeat CPU 0 instructions: 290000036 cycles: 174432550 heartbeat IPC: 1.332 cumulative IPC: 1.307 (Simulation time: 00 hr 49 min 08 sec)
Heartbeat CPU 0 instructions: 300000039 cycles: 181904403 heartbeat IPC: 1.338 cumulative IPC: 1.308 (Simulation time: 00 hr 51 min 03 sec)
Heartbeat CPU 0 instructions: 310000040 cycles: 189349171 heartbeat IPC: 1.343 cumulative IPC: 1.31 (Simulation time: 00 hr 52 min 57 sec)
Heartbeat CPU 0 instructions: 320000043 cycles: 196716037 heartbeat IPC: 1.357 cumulative IPC: 1.312 (Simulation time: 00 hr 54 min 51 sec)
Heartbeat CPU 0 instructions: 330000044 cycles: 204257756 heartbeat IPC: 1.326 cumulative IPC: 1.313 (Simulation time: 00 hr 56 min 45 sec)
Heartbeat CPU 0 instructions: 340000045 cycles: 212254722 heartbeat IPC: 1.25 cumulative IPC: 1.31 (Simulation time: 00 hr 58 min 46 sec)
Heartbeat CPU 0 instructions: 350000047 cycles: 219893163 heartbeat IPC: 1.309 cumulative IPC: 1.31 (Simulation time: 01 hr 00 min 41 sec)
Heartbeat CPU 0 instructions: 360000051 cycles: 227892097 heartbeat IPC: 1.25 cumulative IPC: 1.307 (Simulation time: 01 hr 02 min 40 sec)
Heartbeat CPU 0 instructions: 370000053 cycles: 235753296 heartbeat IPC: 1.272 cumulative IPC: 1.306 (Simulation time: 01 hr 04 min 40 sec)
Heartbeat CPU 0 instructions: 380000054 cycles: 243656262 heartbeat IPC: 1.265 cumulative IPC: 1.305 (Simulation time: 01 hr 06 min 38 sec)
Heartbeat CPU 0 instructions: 390000057 cycles: 251743504 heartbeat IPC: 1.237 cumulative IPC: 1.302 (Simulation time: 01 hr 08 min 39 sec)
Heartbeat CPU 0 instructions: 400000057 cycles: 259538647 heartbeat IPC: 1.283 cumulative IPC: 1.301 (Simulation time: 01 hr 10 min 36 sec)
Heartbeat CPU 0 instructions: 410000061 cycles: 267744043 heartbeat IPC: 1.219 cumulative IPC: 1.299 (Simulation time: 01 hr 12 min 37 sec)
Heartbeat CPU 0 instructions: 420000061 cycles: 275609674 heartbeat IPC: 1.271 cumulative IPC: 1.298 (Simulation time: 01 hr 14 min 36 sec)
Heartbeat CPU 0 instructions: 430000062 cycles: 283823745 heartbeat IPC: 1.217 cumulative IPC: 1.295 (Simulation time: 01 hr 16 min 37 sec)
Heartbeat CPU 0 instructions: 440000063 cycles: 291693540 heartbeat IPC: 1.271 cumulative IPC: 1.294 (Simulation time: 01 hr 18 min 35 sec)
Heartbeat CPU 0 instructions: 450000065 cycles: 299730220 heartbeat IPC: 1.244 cumulative IPC: 1.293 (Simulation time: 01 hr 20 min 45 sec)
Heartbeat CPU 0 instructions: 460000067 cycles: 307678545 heartbeat IPC: 1.258 cumulative IPC: 1.292 (Simulation time: 01 hr 23 min 07 sec)
Heartbeat CPU 0 instructions: 470000070 cycles: 315709851 heartbeat IPC: 1.245 cumulative IPC: 1.291 (Simulation time: 01 hr 25 min 12 sec)
Heartbeat CPU 0 instructions: 480000074 cycles: 323211375 heartbeat IPC: 1.333 cumulative IPC: 1.292 (Simulation time: 01 hr 27 min 13 sec)
Heartbeat CPU 0 instructions: 490000074 cycles: 330575596 heartbeat IPC: 1.358 cumulative IPC: 1.293 (Simulation time: 01 hr 29 min 17 sec)
Heartbeat CPU 0 instructions: 500000075 cycles: 338022518 heartbeat IPC: 1.343 cumulative IPC: 1.295 (Simulation time: 01 hr 31 min 19 sec)
Heartbeat CPU 0 instructions: 510000075 cycles: 345523761 heartbeat IPC: 1.333 cumulative IPC: 1.295 (Simulation time: 01 hr 33 min 21 sec)
Heartbeat CPU 0 instructions: 520000076 cycles: 353040372 heartbeat IPC: 1.33 cumulative IPC: 1.296 (Simulation time: 01 hr 35 min 25 sec)
Heartbeat CPU 0 instructions: 530000080 cycles: 360719680 heartbeat IPC: 1.302 cumulative IPC: 1.296 (Simulation time: 01 hr 37 min 27 sec)
Heartbeat CPU 0 instructions: 540000083 cycles: 368284694 heartbeat IPC: 1.322 cumulative IPC: 1.297 (Simulation time: 01 hr 39 min 33 sec)
Heartbeat CPU 0 instructions: 550000086 cycles: 375776221 heartbeat IPC: 1.335 cumulative IPC: 1.298 (Simulation time: 01 hr 41 min 34 sec)
Heartbeat CPU 0 instructions: 560000087 cycles: 383482715 heartbeat IPC: 1.298 cumulative IPC: 1.298 (Simulation time: 01 hr 43 min 38 sec)
Heartbeat CPU 0 instructions: 570000089 cycles: 391032656 heartbeat IPC: 1.325 cumulative IPC: 1.298 (Simulation time: 01 hr 45 min 44 sec)
Heartbeat CPU 0 instructions: 580000091 cycles: 398457122 heartbeat IPC: 1.347 cumulative IPC: 1.299 (Simulation time: 01 hr 47 min 50 sec)
Heartbeat CPU 0 instructions: 590000092 cycles: 405886582 heartbeat IPC: 1.346 cumulative IPC: 1.3 (Simulation time: 01 hr 49 min 52 sec)
Simulation finished CPU 0 instructions: 500000000 cycles: 384330231 cumulative IPC: 1.301 (Simulation time: 01 hr 51 min 55 sec)
Simulation complete CPU 0 instructions: 500000000 cycles: 384330231 cumulative IPC: 1.301 (Simulation time: 01 hr 51 min 55 sec)

ChampSim completed all CPUs

=== Simulation ===
CPU 0 runs traces/T3.xz

Region of Interest Statistics

CPU 0 cumulative IPC: 1.301 instructions: 500000000 cycles: 384330231
CPU 0 Branch Prediction Accuracy: 99.85% MPKI: 0.001804 Average ROB Occupancy at Mispredict: 278.3
Branch type MPKI
BRANCH_DIRECT_JUMP: 2e-06
BRANCH_INDIRECT: 1e-05
BRANCH_CONDITIONAL: 0.001792
BRANCH_DIRECT_CALL: 0
BRANCH_INDIRECT_CALL: 0
BRANCH_RETURN: 0

cpu0->cpu0_STLB TOTAL        ACCESS:   37705845 HIT:   37644976 MISS:      60869 MSHR_MERGE:          0
cpu0->cpu0_STLB LOAD         ACCESS:   37705845 HIT:   37644976 MISS:      60869 MSHR_MERGE:          0
cpu0->cpu0_STLB RFO          ACCESS:          0 HIT:          0 MISS:          0 MSHR_MERGE:          0
cpu0->cpu0_STLB PREFETCH     ACCESS:          0 HIT:          0 MISS:          0 MSHR_MERGE:          0
cpu0->cpu0_STLB WRITE        ACCESS:          0 HIT:          0 MISS:          0 MSHR_MERGE:          0
cpu0->cpu0_STLB TRANSLATION  ACCESS:          0 HIT:          0 MISS:          0 MSHR_MERGE:          0
cpu0->cpu0_STLB PREFETCH REQUESTED:          0 ISSUED:          0 USEFUL:          0 USELESS:          0
cpu0->cpu0_STLB AVERAGE MISS LATENCY: 563.1 cycles
cpu0->cpu0_L2C TOTAL        ACCESS:   63053622 HIT:   56444005 MISS:    6609617 MSHR_MERGE:          0
cpu0->cpu0_L2C LOAD         ACCESS:   54394905 HIT:   48145578 MISS:    6249327 MSHR_MERGE:          0
cpu0->cpu0_L2C RFO          ACCESS:    4065375 HIT:    3843111 MISS:     222264 MSHR_MERGE:          0
cpu0->cpu0_L2C PREFETCH     ACCESS:          0 HIT:          0 MISS:          0 MSHR_MERGE:          0
cpu0->cpu0_L2C WRITE        ACCESS:    4438281 HIT:    4438246 MISS:         35 MSHR_MERGE:          0
cpu0->cpu0_L2C TRANSLATION  ACCESS:     155061 HIT:      17070 MISS:     137991 MSHR_MERGE:          0
cpu0->cpu0_L2C PREFETCH REQUESTED:          0 ISSUED:          0 USEFUL:          0 USELESS:          0
cpu0->cpu0_L2C AVERAGE MISS LATENCY: 162.1 cycles
cpu0->cpu0_L1I TOTAL        ACCESS:   97341183 HIT:   97341183 MISS:          0 MSHR_MERGE:          0
cpu0->cpu0_L1I LOAD         ACCESS:   97341183 HIT:   97341183 MISS:          0 MSHR_MERGE:          0
cpu0->cpu0_L1I RFO          ACCESS:          0 HIT:          0 MISS:          0 MSHR_MERGE:          0
cpu0->cpu0_L1I PREFETCH     ACCESS:          0 HIT:          0 MISS:          0 MSHR_MERGE:          0
cpu0->cpu0_L1I WRITE        ACCESS:          0 HIT:          0 MISS:          0 MSHR_MERGE:          0
cpu0->cpu0_L1I TRANSLATION  ACCESS:          0 HIT:          0 MISS:          0 MSHR_MERGE:          0
cpu0->cpu0_L1I PREFETCH REQUESTED:          0 ISSUED:          0 USEFUL:          0 USELESS:          0
cpu0->cpu0_L1I AVERAGE MISS LATENCY: - cycles
cpu0->cpu0_L1D TOTAL        ACCESS:  153972190 HIT:   87134103 MISS:   66838087 MSHR_MERGE:    8090316
cpu0->cpu0_L1D LOAD         ACCESS:   96690602 HIT:   34497777 MISS:   62192825 MSHR_MERGE:    7668018
cpu0->cpu0_L1D RFO          ACCESS:          0 HIT:          0 MISS:          0 MSHR_MERGE:          0
cpu0->cpu0_L1D PREFETCH     ACCESS:          0 HIT:          0 MISS:          0 MSHR_MERGE:          0
cpu0->cpu0_L1D WRITE        ACCESS:   57125861 HIT:   52635816 MISS:    4490045 MSHR_MERGE:     422142
cpu0->cpu0_L1D TRANSLATION  ACCESS:     155727 HIT:        510 MISS:     155217 MSHR_MERGE:        156
cpu0->cpu0_L1D PREFETCH REQUESTED:          0 ISSUED:          0 USEFUL:          0 USELESS:          0
cpu0->cpu0_L1D AVERAGE MISS LATENCY: 26.94 cycles
cpu0->cpu0_ITLB TOTAL        ACCESS:   78361670 HIT:   78361670 MISS:          0 MSHR_MERGE:          0
cpu0->cpu0_ITLB LOAD         ACCESS:   78361670 HIT:   78361670 MISS:          0 MSHR_MERGE:          0
cpu0->cpu0_ITLB RFO          ACCESS:          0 HIT:          0 MISS:          0 MSHR_MERGE:          0
cpu0->cpu0_ITLB PREFETCH     ACCESS:          0 HIT:          0 MISS:          0 MSHR_MERGE:          0
cpu0->cpu0_ITLB WRITE        ACCESS:          0 HIT:          0 MISS:          0 MSHR_MERGE:          0
cpu0->cpu0_ITLB TRANSLATION  ACCESS:          0 HIT:          0 MISS:          0 MSHR_MERGE:          0
cpu0->cpu0_ITLB PREFETCH REQUESTED:          0 ISSUED:          0 USEFUL:          0 USELESS:          0
cpu0->cpu0_ITLB AVERAGE MISS LATENCY: - cycles
cpu0->cpu0_DTLB TOTAL        ACCESS:  142339727 HIT:   91677534 MISS:   50662193 MSHR_MERGE:   12956348
cpu0->cpu0_DTLB LOAD         ACCESS:  142339727 HIT:   91677534 MISS:   50662193 MSHR_MERGE:   12956348
cpu0->cpu0_DTLB RFO          ACCESS:          0 HIT:          0 MISS:          0 MSHR_MERGE:          0
cpu0->cpu0_DTLB PREFETCH     ACCESS:          0 HIT:          0 MISS:          0 MSHR_MERGE:          0
cpu0->cpu0_DTLB WRITE        ACCESS:          0 HIT:          0 MISS:          0 MSHR_MERGE:          0
cpu0->cpu0_DTLB TRANSLATION  ACCESS:          0 HIT:          0 MISS:          0 MSHR_MERGE:          0
cpu0->cpu0_DTLB PREFETCH REQUESTED:          0 ISSUED:          0 USEFUL:          0 USELESS:          0
cpu0->cpu0_DTLB AVERAGE MISS LATENCY: 5.952 cycles
cpu0->LLC TOTAL        ACCESS:    7240099 HIT:    2544803 MISS:    4695296 MSHR_MERGE:          0
cpu0->LLC LOAD         ACCESS:    6249323 HIT:    2052797 MISS:    4196526 MSHR_MERGE:          0
cpu0->LLC RFO          ACCESS:     220208 HIT:     192522 MISS:      27686 MSHR_MERGE:          0
cpu0->LLC PREFETCH     ACCESS:          0 HIT:          0 MISS:          0 MSHR_MERGE:          0
cpu0->LLC WRITE        ACCESS:     632577 HIT:     259784 MISS:     372793 MSHR_MERGE:          0
cpu0->LLC TRANSLATION  ACCESS:     137991 HIT:      39700 MISS:      98291 MSHR_MERGE:          0
cpu0->LLC PREFETCH REQUESTED:          0 ISSUED:          0 USEFUL:          0 USELESS:          0
cpu0->LLC AVERAGE MISS LATENCY: 206.9 cycles

DRAM Statistics

Channel 0 RQ ROW_BUFFER_HIT:      31000
  ROW_BUFFER_MISS:    4291247
  AVG DBUS CONGESTED CYCLE: 5.802
Channel 0 WQ ROW_BUFFER_HIT:      73105
  ROW_BUFFER_MISS:     409662
  FULL:          0
Channel 0 REFRESHES ISSUED:      32027
ADAPTIVE LLC [Pure SHiP w/ Throttle] final stats:
ADAPTIVE LLC ship_reuse_predictions: 556134 ship_streaming_predictions: 4319180 ship_neutral_predictions: 46400
ADAPTIVE LLC total_evictions: 5320578
