[VMEM] WARNING: physical memory size is smaller than virtual memory size.

*** ChampSim Multicore Out-of-Order Simulator ***
Warmup Instructions: 100000000
Simulation Instructions: 500000000
Number of CPUs: 1
Page size: 4096

Off-chip DRAM Size: 16 GiB Channels: 1 Width: 64-bit Data Rate: 3205 MT/s
Heartbeat CPU 0 instructions: 10000002 cycles: 3193474 heartbeat IPC: 3.131 cumulative IPC: 3.131 (Simulation time: 00 hr 01 min 04 sec)
Heartbeat CPU 0 instructions: 20000002 cycles: 6303186 heartbeat IPC: 3.216 cumulative IPC: 3.173 (Simulation time: 00 hr 02 min 05 sec)
Heartbeat CPU 0 instructions: 30000006 cycles: 9393134 heartbeat IPC: 3.236 cumulative IPC: 3.194 (Simulation time: 00 hr 03 min 03 sec)
Heartbeat CPU 0 instructions: 40000007 cycles: 12496684 heartbeat IPC: 3.222 cumulative IPC: 3.201 (Simulation time: 00 hr 04 min 06 sec)
Heartbeat CPU 0 instructions: 50000010 cycles: 15574367 heartbeat IPC: 3.249 cumulative IPC: 3.21 (Simulation time: 00 hr 05 min 05 sec)
Heartbeat CPU 0 instructions: 60000010 cycles: 18683021 heartbeat IPC: 3.217 cumulative IPC: 3.211 (Simulation time: 00 hr 06 min 04 sec)
Heartbeat CPU 0 instructions: 70000013 cycles: 21769424 heartbeat IPC: 3.24 cumulative IPC: 3.216 (Simulation time: 00 hr 07 min 02 sec)
Heartbeat CPU 0 instructions: 80000015 cycles: 24871432 heartbeat IPC: 3.224 cumulative IPC: 3.217 (Simulation time: 00 hr 08 min 03 sec)
Heartbeat CPU 0 instructions: 90000019 cycles: 27954685 heartbeat IPC: 3.243 cumulative IPC: 3.219 (Simulation time: 00 hr 09 min 02 sec)
Warmup finished CPU 0 instructions: 100000004 cycles: 30946914 cumulative IPC: 3.231 (Simulation time: 00 hr 10 min 00 sec)
Warmup complete CPU 0 instructions: 100000004 cycles: 30946914 cumulative IPC: 3.231 (Simulation time: 00 hr 10 min 00 sec)
Heartbeat CPU 0 instructions: 100000019 cycles: 30946917 heartbeat IPC: 3.342 cumulative IPC: 5 (Simulation time: 00 hr 10 min 00 sec)
Heartbeat CPU 0 instructions: 110000019 cycles: 58521937 heartbeat IPC: 0.3626 cumulative IPC: 0.3626 (Simulation time: 00 hr 13 min 33 sec)
Heartbeat CPU 0 instructions: 120000019 cycles: 85808494 heartbeat IPC: 0.3665 cumulative IPC: 0.3646 (Simulation time: 00 hr 17 min 03 sec)
Heartbeat CPU 0 instructions: 130000019 cycles: 112919851 heartbeat IPC: 0.3688 cumulative IPC: 0.366 (Simulation time: 00 hr 20 min 38 sec)
Heartbeat CPU 0 instructions: 140000020 cycles: 140816234 heartbeat IPC: 0.3585 cumulative IPC: 0.3641 (Simulation time: 00 hr 24 min 17 sec)
Heartbeat CPU 0 instructions: 150000022 cycles: 168012540 heartbeat IPC: 0.3677 cumulative IPC: 0.3648 (Simulation time: 00 hr 27 min 45 sec)
Heartbeat CPU 0 instructions: 160000023 cycles: 194751973 heartbeat IPC: 0.374 cumulative IPC: 0.3663 (Simulation time: 00 hr 31 min 16 sec)
Heartbeat CPU 0 instructions: 170000025 cycles: 222555422 heartbeat IPC: 0.3597 cumulative IPC: 0.3653 (Simulation time: 00 hr 34 min 48 sec)
Heartbeat CPU 0 instructions: 180000026 cycles: 249404149 heartbeat IPC: 0.3725 cumulative IPC: 0.3662 (Simulation time: 00 hr 38 min 14 sec)
Heartbeat CPU 0 instructions: 190000026 cycles: 277137540 heartbeat IPC: 0.3606 cumulative IPC: 0.3656 (Simulation time: 00 hr 41 min 44 sec)
Heartbeat CPU 0 instructions: 200000028 cycles: 304890046 heartbeat IPC: 0.3603 cumulative IPC: 0.365 (Simulation time: 00 hr 45 min 16 sec)
Heartbeat CPU 0 instructions: 210000030 cycles: 332577982 heartbeat IPC: 0.3612 cumulative IPC: 0.3647 (Simulation time: 00 hr 48 min 49 sec)
Heartbeat CPU 0 instructions: 220000030 cycles: 359144546 heartbeat IPC: 0.3764 cumulative IPC: 0.3656 (Simulation time: 00 hr 52 min 13 sec)
Heartbeat CPU 0 instructions: 230000030 cycles: 387378117 heartbeat IPC: 0.3542 cumulative IPC: 0.3647 (Simulation time: 00 hr 55 min 47 sec)
Heartbeat CPU 0 instructions: 240000033 cycles: 413006295 heartbeat IPC: 0.3902 cumulative IPC: 0.3664 (Simulation time: 00 hr 59 min 05 sec)
Heartbeat CPU 0 instructions: 250000036 cycles: 439405858 heartbeat IPC: 0.3788 cumulative IPC: 0.3672 (Simulation time: 01 hr 02 min 27 sec)
Heartbeat CPU 0 instructions: 260000036 cycles: 466037882 heartbeat IPC: 0.3755 cumulative IPC: 0.3677 (Simulation time: 01 hr 05 min 51 sec)
Heartbeat CPU 0 instructions: 270000040 cycles: 492589285 heartbeat IPC: 0.3766 cumulative IPC: 0.3683 (Simulation time: 01 hr 09 min 14 sec)
Heartbeat CPU 0 instructions: 280000040 cycles: 519087382 heartbeat IPC: 0.3774 cumulative IPC: 0.3687 (Simulation time: 01 hr 12 min 36 sec)
Heartbeat CPU 0 instructions: 290000040 cycles: 544650951 heartbeat IPC: 0.3912 cumulative IPC: 0.3699 (Simulation time: 01 hr 15 min 52 sec)
Heartbeat CPU 0 instructions: 300000043 cycles: 570299407 heartbeat IPC: 0.3899 cumulative IPC: 0.3708 (Simulation time: 01 hr 19 min 10 sec)
Heartbeat CPU 0 instructions: 310000044 cycles: 593935785 heartbeat IPC: 0.4231 cumulative IPC: 0.373 (Simulation time: 01 hr 22 min 43 sec)
Heartbeat CPU 0 instructions: 320000045 cycles: 619131004 heartbeat IPC: 0.3969 cumulative IPC: 0.374 (Simulation time: 01 hr 26 min 06 sec)
Heartbeat CPU 0 instructions: 330000045 cycles: 644127932 heartbeat IPC: 0.4 cumulative IPC: 0.3751 (Simulation time: 01 hr 29 min 33 sec)
Heartbeat CPU 0 instructions: 340000048 cycles: 668906608 heartbeat IPC: 0.4036 cumulative IPC: 0.3762 (Simulation time: 01 hr 32 min 58 sec)
Heartbeat CPU 0 instructions: 350000048 cycles: 693820692 heartbeat IPC: 0.4014 cumulative IPC: 0.3771 (Simulation time: 01 hr 36 min 22 sec)
Heartbeat CPU 0 instructions: 360000049 cycles: 718273922 heartbeat IPC: 0.4089 cumulative IPC: 0.3783 (Simulation time: 01 hr 39 min 44 sec)
Heartbeat CPU 0 instructions: 370000052 cycles: 742601282 heartbeat IPC: 0.4111 cumulative IPC: 0.3794 (Simulation time: 01 hr 43 min 03 sec)
Heartbeat CPU 0 instructions: 380000052 cycles: 767482268 heartbeat IPC: 0.4019 cumulative IPC: 0.3802 (Simulation time: 01 hr 46 min 32 sec)
Heartbeat CPU 0 instructions: 390000053 cycles: 792250644 heartbeat IPC: 0.4037 cumulative IPC: 0.3809 (Simulation time: 01 hr 49 min 57 sec)
Heartbeat CPU 0 instructions: 400000054 cycles: 817119669 heartbeat IPC: 0.4021 cumulative IPC: 0.3816 (Simulation time: 01 hr 53 min 16 sec)
Heartbeat CPU 0 instructions: 410000056 cycles: 842059669 heartbeat IPC: 0.401 cumulative IPC: 0.3822 (Simulation time: 01 hr 56 min 32 sec)
Heartbeat CPU 0 instructions: 420000059 cycles: 866846493 heartbeat IPC: 0.4034 cumulative IPC: 0.3828 (Simulation time: 01 hr 59 min 44 sec)
Heartbeat CPU 0 instructions: 430000060 cycles: 891824319 heartbeat IPC: 0.4004 cumulative IPC: 0.3833 (Simulation time: 02 hr 02 min 56 sec)
Heartbeat CPU 0 instructions: 440000061 cycles: 916684746 heartbeat IPC: 0.4022 cumulative IPC: 0.3839 (Simulation time: 02 hr 06 min 03 sec)
Heartbeat CPU 0 instructions: 450000065 cycles: 942123418 heartbeat IPC: 0.3931 cumulative IPC: 0.3841 (Simulation time: 02 hr 08 min 46 sec)
Heartbeat CPU 0 instructions: 460000065 cycles: 968114324 heartbeat IPC: 0.3847 cumulative IPC: 0.3841 (Simulation time: 02 hr 11 min 29 sec)
Heartbeat CPU 0 instructions: 470000066 cycles: 995390440 heartbeat IPC: 0.3666 cumulative IPC: 0.3836 (Simulation time: 02 hr 14 min 11 sec)
Heartbeat CPU 0 instructions: 480000070 cycles: 1021928593 heartbeat IPC: 0.3768 cumulative IPC: 0.3835 (Simulation time: 02 hr 17 min 02 sec)
Heartbeat CPU 0 instructions: 490000070 cycles: 1048511617 heartbeat IPC: 0.3762 cumulative IPC: 0.3833 (Simulation time: 02 hr 19 min 56 sec)
Heartbeat CPU 0 instructions: 500000071 cycles: 1075971511 heartbeat IPC: 0.3642 cumulative IPC: 0.3828 (Simulation time: 02 hr 22 min 55 sec)
Heartbeat CPU 0 instructions: 510000073 cycles: 1102287102 heartbeat IPC: 0.38 cumulative IPC: 0.3827 (Simulation time: 02 hr 25 min 45 sec)
Heartbeat CPU 0 instructions: 520000074 cycles: 1128854837 heartbeat IPC: 0.3764 cumulative IPC: 0.3825 (Simulation time: 02 hr 28 min 52 sec)
Heartbeat CPU 0 instructions: 530000074 cycles: 1156424793 heartbeat IPC: 0.3627 cumulative IPC: 0.3821 (Simulation time: 02 hr 31 min 58 sec)
Heartbeat CPU 0 instructions: 540000074 cycles: 1183109292 heartbeat IPC: 0.3747 cumulative IPC: 0.3819 (Simulation time: 02 hr 34 min 54 sec)
Heartbeat CPU 0 instructions: 550000077 cycles: 1210891350 heartbeat IPC: 0.3599 cumulative IPC: 0.3814 (Simulation time: 02 hr 37 min 57 sec)
Heartbeat CPU 0 instructions: 560000077 cycles: 1238618576 heartbeat IPC: 0.3607 cumulative IPC: 0.3809 (Simulation time: 02 hr 40 min 42 sec)
Heartbeat CPU 0 instructions: 570000078 cycles: 1273892360 heartbeat IPC: 0.2835 cumulative IPC: 0.3781 (Simulation time: 02 hr 44 min 17 sec)
Heartbeat CPU 0 instructions: 580000079 cycles: 1304180457 heartbeat IPC: 0.3302 cumulative IPC: 0.377 (Simulation time: 02 hr 47 min 14 sec)
Heartbeat CPU 0 instructions: 590000081 cycles: 1335782873 heartbeat IPC: 0.3164 cumulative IPC: 0.3755 (Simulation time: 02 hr 50 min 16 sec)
Simulation finished CPU 0 instructions: 500000000 cycles: 1335770993 cumulative IPC: 0.3743 (Simulation time: 02 hr 53 min 16 sec)
Simulation complete CPU 0 instructions: 500000000 cycles: 1335770993 cumulative IPC: 0.3743 (Simulation time: 02 hr 53 min 16 sec)

ChampSim completed all CPUs

=== Simulation ===
CPU 0 runs traces/T2.xz

Region of Interest Statistics

CPU 0 cumulative IPC: 0.3743 instructions: 500000000 cycles: 1335770993
CPU 0 Branch Prediction Accuracy: 87.05% MPKI: 32.06 Average ROB Occupancy at Mispredict: 15.31
Branch type MPKI
BRANCH_DIRECT_JUMP: 0.2882
BRANCH_INDIRECT: 0
BRANCH_CONDITIONAL: 31.77
BRANCH_DIRECT_CALL: 0
BRANCH_INDIRECT_CALL: 0.000158
BRANCH_RETURN: 0

cpu0->cpu0_STLB TOTAL        ACCESS:    7001535 HIT:    6910132 MISS:      91403 MSHR_MERGE:          0
cpu0->cpu0_STLB LOAD         ACCESS:    7001535 HIT:    6910132 MISS:      91403 MSHR_MERGE:          0
cpu0->cpu0_STLB RFO          ACCESS:          0 HIT:          0 MISS:          0 MSHR_MERGE:          0
cpu0->cpu0_STLB PREFETCH     ACCESS:          0 HIT:          0 MISS:          0 MSHR_MERGE:          0
cpu0->cpu0_STLB WRITE        ACCESS:          0 HIT:          0 MISS:          0 MSHR_MERGE:          0
cpu0->cpu0_STLB TRANSLATION  ACCESS:          0 HIT:          0 MISS:          0 MSHR_MERGE:          0
cpu0->cpu0_STLB PREFETCH REQUESTED:          0 ISSUED:          0 USEFUL:          0 USELESS:          0
cpu0->cpu0_STLB AVERAGE MISS LATENCY: 497.7 cycles
cpu0->cpu0_L2C TOTAL        ACCESS:   20183560 HIT:    9629088 MISS:   10554472 MSHR_MERGE:          0
cpu0->cpu0_L2C LOAD         ACCESS:   15363301 HIT:    5737955 MISS:    9625346 MSHR_MERGE:          0
cpu0->cpu0_L2C RFO          ACCESS:    1902669 HIT:    1108796 MISS:     793873 MSHR_MERGE:          0
cpu0->cpu0_L2C PREFETCH     ACCESS:          0 HIT:          0 MISS:          0 MSHR_MERGE:          0
cpu0->cpu0_L2C WRITE        ACCESS:    2782051 HIT:    2780663 MISS:       1388 MSHR_MERGE:          0
cpu0->cpu0_L2C TRANSLATION  ACCESS:     135539 HIT:       1674 MISS:     133865 MSHR_MERGE:          0
cpu0->cpu0_L2C PREFETCH REQUESTED:          0 ISSUED:          0 USEFUL:          0 USELESS:          0
cpu0->cpu0_L2C AVERAGE MISS LATENCY: 87.98 cycles
cpu0->cpu0_L1I TOTAL        ACCESS:    1432525 HIT:    1432523 MISS:          2 MSHR_MERGE:          0
cpu0->cpu0_L1I LOAD         ACCESS:    1432525 HIT:    1432523 MISS:          2 MSHR_MERGE:          0
cpu0->cpu0_L1I RFO          ACCESS:          0 HIT:          0 MISS:          0 MSHR_MERGE:          0
cpu0->cpu0_L1I PREFETCH     ACCESS:          0 HIT:          0 MISS:          0 MSHR_MERGE:          0
cpu0->cpu0_L1I WRITE        ACCESS:          0 HIT:          0 MISS:          0 MSHR_MERGE:          0
cpu0->cpu0_L1I TRANSLATION  ACCESS:          0 HIT:          0 MISS:          0 MSHR_MERGE:          0
cpu0->cpu0_L1I PREFETCH REQUESTED:          0 ISSUED:          0 USEFUL:          0 USELESS:          0
cpu0->cpu0_L1I AVERAGE MISS LATENCY: 225 cycles
cpu0->cpu0_L1D TOTAL        ACCESS:  205719498 HIT:  181357954 MISS:   24361544 MSHR_MERGE:    6960023
cpu0->cpu0_L1D LOAD         ACCESS:  145712197 HIT:  126600342 MISS:   19111855 MSHR_MERGE:    3748547
cpu0->cpu0_L1D RFO          ACCESS:          0 HIT:          0 MISS:          0 MSHR_MERGE:          0
cpu0->cpu0_L1D PREFETCH     ACCESS:          0 HIT:          0 MISS:          0 MSHR_MERGE:          0
cpu0->cpu0_L1D WRITE        ACCESS:   59823939 HIT:   54709857 MISS:    5114082 MSHR_MERGE:    3211408
cpu0->cpu0_L1D TRANSLATION  ACCESS:     183362 HIT:      47755 MISS:     135607 MSHR_MERGE:         68
cpu0->cpu0_L1D PREFETCH REQUESTED:          0 ISSUED:          0 USEFUL:          0 USELESS:          0
cpu0->cpu0_L1D AVERAGE MISS LATENCY: 61.99 cycles
cpu0->cpu0_ITLB TOTAL        ACCESS:    1311194 HIT:    1311194 MISS:          0 MSHR_MERGE:          0
cpu0->cpu0_ITLB LOAD         ACCESS:    1311194 HIT:    1311194 MISS:          0 MSHR_MERGE:          0
cpu0->cpu0_ITLB RFO          ACCESS:          0 HIT:          0 MISS:          0 MSHR_MERGE:          0
cpu0->cpu0_ITLB PREFETCH     ACCESS:          0 HIT:          0 MISS:          0 MSHR_MERGE:          0
cpu0->cpu0_ITLB WRITE        ACCESS:          0 HIT:          0 MISS:          0 MSHR_MERGE:          0
cpu0->cpu0_ITLB TRANSLATION  ACCESS:          0 HIT:          0 MISS:          0 MSHR_MERGE:          0
cpu0->cpu0_ITLB PREFETCH REQUESTED:          0 ISSUED:          0 USEFUL:          0 USELESS:          0
cpu0->cpu0_ITLB AVERAGE MISS LATENCY: - cycles
cpu0->cpu0_DTLB TOTAL        ACCESS:  196497920 HIT:  186957534 MISS:    9540386 MSHR_MERGE:    2538851
cpu0->cpu0_DTLB LOAD         ACCESS:  196497920 HIT:  186957534 MISS:    9540386 MSHR_MERGE:    2538851
cpu0->cpu0_DTLB RFO          ACCESS:          0 HIT:          0 MISS:          0 MSHR_MERGE:          0
cpu0->cpu0_DTLB PREFETCH     ACCESS:          0 HIT:          0 MISS:          0 MSHR_MERGE:          0
cpu0->cpu0_DTLB WRITE        ACCESS:          0 HIT:          0 MISS:          0 MSHR_MERGE:          0
cpu0->cpu0_DTLB TRANSLATION  ACCESS:          0 HIT:          0 MISS:          0 MSHR_MERGE:          0
cpu0->cpu0_DTLB PREFETCH REQUESTED:          0 ISSUED:          0 USEFUL:          0 USELESS:          0
cpu0->cpu0_DTLB AVERAGE MISS LATENCY: 11.51 cycles
cpu0->LLC TOTAL        ACCESS:   11933354 HIT:    7284281 MISS:    4649073 MSHR_MERGE:          0
cpu0->LLC LOAD         ACCESS:    9625345 HIT:    5127241 MISS:    4498104 MSHR_MERGE:          0
cpu0->LLC RFO          ACCESS:     793871 HIT:     791722 MISS:       2149 MSHR_MERGE:          0
cpu0->LLC PREFETCH     ACCESS:          0 HIT:          0 MISS:          0 MSHR_MERGE:          0
cpu0->LLC WRITE        ACCESS:    1380273 HIT:    1342599 MISS:      37674 MSHR_MERGE:          0
cpu0->LLC TRANSLATION  ACCESS:     133865 HIT:      22719 MISS:     111146 MSHR_MERGE:          0
cpu0->LLC PREFETCH REQUESTED:          0 ISSUED:          0 USEFUL:          0 USELESS:          0
cpu0->LLC AVERAGE MISS LATENCY: 164.8 cycles

DRAM Statistics

Channel 0 RQ ROW_BUFFER_HIT:     492795
  ROW_BUFFER_MISS:    4118585
  AVG DBUS CONGESTED CYCLE: 14.91
Channel 0 WQ ROW_BUFFER_HIT:      13701
  ROW_BUFFER_MISS:      34132
  FULL:          0
Channel 0 REFRESHES ISSUED:     111315
ADAPTIVE LLC [Pure SHiP w/ Throttle] final stats:
ADAPTIVE LLC ship_reuse_predictions: 34610 ship_streaming_predictions: 5733743 ship_neutral_predictions: 19667
ADAPTIVE LLC total_evictions: 5797617
