[VMEM] WARNING: physical memory size is smaller than virtual memory size.

*** ChampSim Multicore Out-of-Order Simulator ***
Warmup Instructions: 100000000
Simulation Instructions: 500000000
Number of CPUs: 1
Page size: 4096

Off-chip DRAM Size: 16 GiB Channels: 1 Width: 64-bit Data Rate: 3205 MT/s
Heartbeat CPU 0 instructions: 10000002 cycles: 2804573 heartbeat IPC: 3.566 cumulative IPC: 3.566 (Simulation time: 00 hr 01 min 03 sec)
Heartbeat CPU 0 instructions: 20000006 cycles: 5602603 heartbeat IPC: 3.574 cumulative IPC: 3.57 (Simulation time: 00 hr 02 min 05 sec)
Heartbeat CPU 0 instructions: 30000008 cycles: 8403885 heartbeat IPC: 3.57 cumulative IPC: 3.57 (Simulation time: 00 hr 03 min 05 sec)
Heartbeat CPU 0 instructions: 40000011 cycles: 11200435 heartbeat IPC: 3.576 cumulative IPC: 3.571 (Simulation time: 00 hr 04 min 10 sec)
Heartbeat CPU 0 instructions: 50000011 cycles: 13997041 heartbeat IPC: 3.576 cumulative IPC: 3.572 (Simulation time: 00 hr 05 min 10 sec)
Heartbeat CPU 0 instructions: 60000013 cycles: 16791994 heartbeat IPC: 3.578 cumulative IPC: 3.573 (Simulation time: 00 hr 06 min 10 sec)
Heartbeat CPU 0 instructions: 70000016 cycles: 19589224 heartbeat IPC: 3.575 cumulative IPC: 3.573 (Simulation time: 00 hr 07 min 10 sec)
Heartbeat CPU 0 instructions: 80000018 cycles: 22386085 heartbeat IPC: 3.575 cumulative IPC: 3.574 (Simulation time: 00 hr 08 min 13 sec)
Heartbeat CPU 0 instructions: 90000022 cycles: 25181908 heartbeat IPC: 3.577 cumulative IPC: 3.574 (Simulation time: 00 hr 09 min 15 sec)
Warmup finished CPU 0 instructions: 100000003 cycles: 27977808 cumulative IPC: 3.574 (Simulation time: 00 hr 10 min 16 sec)
Warmup complete CPU 0 instructions: 100000003 cycles: 27977808 cumulative IPC: 3.574 (Simulation time: 00 hr 10 min 16 sec)
Heartbeat CPU 0 instructions: 100000023 cycles: 27977812 heartbeat IPC: 3.577 cumulative IPC: 5 (Simulation time: 00 hr 10 min 16 sec)
Heartbeat CPU 0 instructions: 110000023 cycles: 39378781 heartbeat IPC: 0.8771 cumulative IPC: 0.8771 (Simulation time: 00 hr 12 min 33 sec)
Heartbeat CPU 0 instructions: 120000023 cycles: 50829678 heartbeat IPC: 0.8733 cumulative IPC: 0.8752 (Simulation time: 00 hr 14 min 49 sec)
Heartbeat CPU 0 instructions: 130000024 cycles: 62255636 heartbeat IPC: 0.8752 cumulative IPC: 0.8752 (Simulation time: 00 hr 17 min 06 sec)
Heartbeat CPU 0 instructions: 140000025 cycles: 73628721 heartbeat IPC: 0.8793 cumulative IPC: 0.8762 (Simulation time: 00 hr 19 min 23 sec)
Heartbeat CPU 0 instructions: 150000028 cycles: 84952133 heartbeat IPC: 0.8831 cumulative IPC: 0.8776 (Simulation time: 00 hr 21 min 48 sec)
Heartbeat CPU 0 instructions: 160000029 cycles: 96271192 heartbeat IPC: 0.8835 cumulative IPC: 0.8786 (Simulation time: 00 hr 24 min 06 sec)
Heartbeat CPU 0 instructions: 170000032 cycles: 107615764 heartbeat IPC: 0.8815 cumulative IPC: 0.879 (Simulation time: 00 hr 26 min 22 sec)
Heartbeat CPU 0 instructions: 180000035 cycles: 119088092 heartbeat IPC: 0.8717 cumulative IPC: 0.8781 (Simulation time: 00 hr 28 min 39 sec)
Heartbeat CPU 0 instructions: 190000037 cycles: 130463205 heartbeat IPC: 0.8791 cumulative IPC: 0.8782 (Simulation time: 00 hr 31 min 01 sec)
Heartbeat CPU 0 instructions: 200000039 cycles: 141938718 heartbeat IPC: 0.8714 cumulative IPC: 0.8775 (Simulation time: 00 hr 33 min 20 sec)
Heartbeat CPU 0 instructions: 210000040 cycles: 153360104 heartbeat IPC: 0.8756 cumulative IPC: 0.8773 (Simulation time: 00 hr 35 min 37 sec)
Heartbeat CPU 0 instructions: 220000041 cycles: 164845940 heartbeat IPC: 0.8706 cumulative IPC: 0.8768 (Simulation time: 00 hr 37 min 55 sec)
Heartbeat CPU 0 instructions: 230000043 cycles: 176324224 heartbeat IPC: 0.8712 cumulative IPC: 0.8763 (Simulation time: 00 hr 40 min 13 sec)
Heartbeat CPU 0 instructions: 240000044 cycles: 187852768 heartbeat IPC: 0.8674 cumulative IPC: 0.8757 (Simulation time: 00 hr 42 min 30 sec)
Heartbeat CPU 0 instructions: 250000045 cycles: 199301018 heartbeat IPC: 0.8735 cumulative IPC: 0.8755 (Simulation time: 00 hr 44 min 49 sec)
Heartbeat CPU 0 instructions: 260000047 cycles: 210683548 heartbeat IPC: 0.8785 cumulative IPC: 0.8757 (Simulation time: 00 hr 47 min 05 sec)
Heartbeat CPU 0 instructions: 270000049 cycles: 222185113 heartbeat IPC: 0.8694 cumulative IPC: 0.8754 (Simulation time: 00 hr 49 min 24 sec)
Heartbeat CPU 0 instructions: 280000052 cycles: 233474242 heartbeat IPC: 0.8858 cumulative IPC: 0.8759 (Simulation time: 00 hr 51 min 39 sec)
Heartbeat CPU 0 instructions: 290000053 cycles: 244922479 heartbeat IPC: 0.8735 cumulative IPC: 0.8758 (Simulation time: 00 hr 53 min 55 sec)
Heartbeat CPU 0 instructions: 300000055 cycles: 256362317 heartbeat IPC: 0.8741 cumulative IPC: 0.8757 (Simulation time: 00 hr 56 min 12 sec)
Heartbeat CPU 0 instructions: 310000057 cycles: 267642446 heartbeat IPC: 0.8865 cumulative IPC: 0.8762 (Simulation time: 00 hr 58 min 26 sec)
Heartbeat CPU 0 instructions: 320000059 cycles: 278960134 heartbeat IPC: 0.8836 cumulative IPC: 0.8766 (Simulation time: 01 hr 00 min 41 sec)
Heartbeat CPU 0 instructions: 330000062 cycles: 290402483 heartbeat IPC: 0.8739 cumulative IPC: 0.8764 (Simulation time: 01 hr 02 min 57 sec)
Heartbeat CPU 0 instructions: 340000066 cycles: 301890045 heartbeat IPC: 0.8705 cumulative IPC: 0.8762 (Simulation time: 01 hr 05 min 15 sec)
Heartbeat CPU 0 instructions: 350000070 cycles: 313340367 heartbeat IPC: 0.8733 cumulative IPC: 0.8761 (Simulation time: 01 hr 07 min 32 sec)
Heartbeat CPU 0 instructions: 360000070 cycles: 324710187 heartbeat IPC: 0.8795 cumulative IPC: 0.8762 (Simulation time: 01 hr 09 min 48 sec)
Heartbeat CPU 0 instructions: 370000071 cycles: 336068012 heartbeat IPC: 0.8805 cumulative IPC: 0.8764 (Simulation time: 01 hr 12 min 04 sec)
Heartbeat CPU 0 instructions: 380000075 cycles: 347451722 heartbeat IPC: 0.8784 cumulative IPC: 0.8764 (Simulation time: 01 hr 14 min 20 sec)
Heartbeat CPU 0 instructions: 390000077 cycles: 358799607 heartbeat IPC: 0.8812 cumulative IPC: 0.8766 (Simulation time: 01 hr 16 min 36 sec)
Heartbeat CPU 0 instructions: 400000079 cycles: 370223431 heartbeat IPC: 0.8754 cumulative IPC: 0.8766 (Simulation time: 01 hr 18 min 53 sec)
Heartbeat CPU 0 instructions: 410000081 cycles: 381468814 heartbeat IPC: 0.8893 cumulative IPC: 0.877 (Simulation time: 01 hr 21 min 25 sec)
Heartbeat CPU 0 instructions: 420000081 cycles: 392847703 heartbeat IPC: 0.8788 cumulative IPC: 0.877 (Simulation time: 01 hr 23 min 57 sec)
Heartbeat CPU 0 instructions: 430000081 cycles: 404185358 heartbeat IPC: 0.882 cumulative IPC: 0.8772 (Simulation time: 01 hr 26 min 17 sec)
Heartbeat CPU 0 instructions: 440000085 cycles: 415740998 heartbeat IPC: 0.8654 cumulative IPC: 0.8768 (Simulation time: 01 hr 28 min 44 sec)
Heartbeat CPU 0 instructions: 450000086 cycles: 427215376 heartbeat IPC: 0.8715 cumulative IPC: 0.8767 (Simulation time: 01 hr 31 min 12 sec)
Heartbeat CPU 0 instructions: 460000087 cycles: 438582276 heartbeat IPC: 0.8797 cumulative IPC: 0.8768 (Simulation time: 01 hr 33 min 37 sec)
Heartbeat CPU 0 instructions: 470000088 cycles: 450011863 heartbeat IPC: 0.8749 cumulative IPC: 0.8767 (Simulation time: 01 hr 36 min 02 sec)
Heartbeat CPU 0 instructions: 480000089 cycles: 461433792 heartbeat IPC: 0.8755 cumulative IPC: 0.8767 (Simulation time: 01 hr 38 min 25 sec)
Heartbeat CPU 0 instructions: 490000092 cycles: 472872141 heartbeat IPC: 0.8743 cumulative IPC: 0.8766 (Simulation time: 01 hr 40 min 53 sec)
Heartbeat CPU 0 instructions: 500000092 cycles: 484359665 heartbeat IPC: 0.8705 cumulative IPC: 0.8765 (Simulation time: 01 hr 43 min 18 sec)
Heartbeat CPU 0 instructions: 510000092 cycles: 495764151 heartbeat IPC: 0.8768 cumulative IPC: 0.8765 (Simulation time: 01 hr 45 min 47 sec)
Heartbeat CPU 0 instructions: 520000096 cycles: 507174158 heartbeat IPC: 0.8764 cumulative IPC: 0.8765 (Simulation time: 01 hr 48 min 16 sec)
Heartbeat CPU 0 instructions: 530000100 cycles: 518542652 heartbeat IPC: 0.8796 cumulative IPC: 0.8765 (Simulation time: 01 hr 50 min 41 sec)
Heartbeat CPU 0 instructions: 540000102 cycles: 529875479 heartbeat IPC: 0.8824 cumulative IPC: 0.8767 (Simulation time: 01 hr 53 min 02 sec)
Heartbeat CPU 0 instructions: 550000103 cycles: 541253889 heartbeat IPC: 0.8789 cumulative IPC: 0.8767 (Simulation time: 01 hr 55 min 24 sec)
Heartbeat CPU 0 instructions: 560000106 cycles: 552834238 heartbeat IPC: 0.8635 cumulative IPC: 0.8764 (Simulation time: 01 hr 57 min 42 sec)
Heartbeat CPU 0 instructions: 570000107 cycles: 564354118 heartbeat IPC: 0.8681 cumulative IPC: 0.8763 (Simulation time: 02 hr 00 min 01 sec)
Heartbeat CPU 0 instructions: 580000111 cycles: 575879808 heartbeat IPC: 0.8676 cumulative IPC: 0.8761 (Simulation time: 02 hr 02 min 19 sec)
Heartbeat CPU 0 instructions: 590000115 cycles: 587293430 heartbeat IPC: 0.8761 cumulative IPC: 0.8761 (Simulation time: 02 hr 04 min 35 sec)
Simulation finished CPU 0 instructions: 500000000 cycles: 570805522 cumulative IPC: 0.876 (Simulation time: 02 hr 06 min 48 sec)
Simulation complete CPU 0 instructions: 500000000 cycles: 570805522 cumulative IPC: 0.876 (Simulation time: 02 hr 06 min 48 sec)

ChampSim completed all CPUs

=== Simulation ===
CPU 0 runs traces/T1.xz

Region of Interest Statistics

CPU 0 cumulative IPC: 0.876 instructions: 500000000 cycles: 570805522
CPU 0 Branch Prediction Accuracy: 80.62% MPKI: 1.636 Average ROB Occupancy at Mispredict: 300.2
Branch type MPKI
BRANCH_DIRECT_JUMP: 0
BRANCH_INDIRECT: 0
BRANCH_CONDITIONAL: 1.636
BRANCH_DIRECT_CALL: 0
BRANCH_INDIRECT_CALL: 0
BRANCH_RETURN: 0

cpu0->cpu0_STLB TOTAL        ACCESS:     860661 HIT:     754154 MISS:     106507 MSHR_MERGE:          0
cpu0->cpu0_STLB LOAD         ACCESS:     860661 HIT:     754154 MISS:     106507 MSHR_MERGE:          0
cpu0->cpu0_STLB RFO          ACCESS:          0 HIT:          0 MISS:          0 MSHR_MERGE:          0
cpu0->cpu0_STLB PREFETCH     ACCESS:          0 HIT:          0 MISS:          0 MSHR_MERGE:          0
cpu0->cpu0_STLB WRITE        ACCESS:          0 HIT:          0 MISS:          0 MSHR_MERGE:          0
cpu0->cpu0_STLB TRANSLATION  ACCESS:          0 HIT:          0 MISS:          0 MSHR_MERGE:          0
cpu0->cpu0_STLB PREFETCH REQUESTED:          0 ISSUED:          0 USEFUL:          0 USELESS:          0
cpu0->cpu0_STLB AVERAGE MISS LATENCY: 693.1 cycles
cpu0->cpu0_L2C TOTAL        ACCESS:   11738924 HIT:    4281731 MISS:    7457193 MSHR_MERGE:          0
cpu0->cpu0_L2C LOAD         ACCESS:    5188807 HIT:     831531 MISS:    4357276 MSHR_MERGE:          0
cpu0->cpu0_L2C RFO          ACCESS:    3149482 HIT:     172564 MISS:    2976918 MSHR_MERGE:          0
cpu0->cpu0_L2C PREFETCH     ACCESS:          0 HIT:          0 MISS:          0 MSHR_MERGE:          0
cpu0->cpu0_L2C WRITE        ACCESS:    3188066 HIT:    3187872 MISS:        194 MSHR_MERGE:          0
cpu0->cpu0_L2C TRANSLATION  ACCESS:     212569 HIT:      89764 MISS:     122805 MSHR_MERGE:          0
cpu0->cpu0_L2C PREFETCH REQUESTED:          0 ISSUED:          0 USEFUL:          0 USELESS:          0
cpu0->cpu0_L2C AVERAGE MISS LATENCY: 235 cycles
cpu0->cpu0_L1I TOTAL        ACCESS:   56722860 HIT:   56722860 MISS:          0 MSHR_MERGE:          0
cpu0->cpu0_L1I LOAD         ACCESS:   56722860 HIT:   56722860 MISS:          0 MSHR_MERGE:          0
cpu0->cpu0_L1I RFO          ACCESS:          0 HIT:          0 MISS:          0 MSHR_MERGE:          0
cpu0->cpu0_L1I PREFETCH     ACCESS:          0 HIT:          0 MISS:          0 MSHR_MERGE:          0
cpu0->cpu0_L1I WRITE        ACCESS:          0 HIT:          0 MISS:          0 MSHR_MERGE:          0
cpu0->cpu0_L1I TRANSLATION  ACCESS:          0 HIT:          0 MISS:          0 MSHR_MERGE:          0
cpu0->cpu0_L1I PREFETCH REQUESTED:          0 ISSUED:          0 USEFUL:          0 USELESS:          0
cpu0->cpu0_L1I AVERAGE MISS LATENCY: - cycles
cpu0->cpu0_L1D TOTAL        ACCESS:  165464998 HIT:  149198212 MISS:   16266786 MSHR_MERGE:    7713142
cpu0->cpu0_L1D LOAD         ACCESS:   73797951 HIT:   68561733 MISS:    5236218 MSHR_MERGE:      47379
cpu0->cpu0_L1D RFO          ACCESS:          0 HIT:          0 MISS:          0 MSHR_MERGE:          0
cpu0->cpu0_L1D PREFETCH     ACCESS:          0 HIT:          0 MISS:          0 MSHR_MERGE:          0
cpu0->cpu0_L1D WRITE        ACCESS:   91453779 HIT:   80635801 MISS:   10817978 MSHR_MERGE:    7665742
cpu0->cpu0_L1D TRANSLATION  ACCESS:     213268 HIT:        678 MISS:     212590 MSHR_MERGE:         21
cpu0->cpu0_L1D PREFETCH REQUESTED:          0 ISSUED:          0 USEFUL:          0 USELESS:          0
cpu0->cpu0_L1D AVERAGE MISS LATENCY: 213.8 cycles
cpu0->cpu0_ITLB TOTAL        ACCESS:   45350288 HIT:   45350288 MISS:          0 MSHR_MERGE:          0
cpu0->cpu0_ITLB LOAD         ACCESS:   45350288 HIT:   45350288 MISS:          0 MSHR_MERGE:          0
cpu0->cpu0_ITLB RFO          ACCESS:          0 HIT:          0 MISS:          0 MSHR_MERGE:          0
cpu0->cpu0_ITLB PREFETCH     ACCESS:          0 HIT:          0 MISS:          0 MSHR_MERGE:          0
cpu0->cpu0_ITLB WRITE        ACCESS:          0 HIT:          0 MISS:          0 MSHR_MERGE:          0
cpu0->cpu0_ITLB TRANSLATION  ACCESS:          0 HIT:          0 MISS:          0 MSHR_MERGE:          0
cpu0->cpu0_ITLB PREFETCH REQUESTED:          0 ISSUED:          0 USEFUL:          0 USELESS:          0
cpu0->cpu0_ITLB AVERAGE MISS LATENCY: - cycles
cpu0->cpu0_DTLB TOTAL        ACCESS:  151600755 HIT:  150636437 MISS:     964318 MSHR_MERGE:     103657
cpu0->cpu0_DTLB LOAD         ACCESS:  151600755 HIT:  150636437 MISS:     964318 MSHR_MERGE:     103657
cpu0->cpu0_DTLB RFO          ACCESS:          0 HIT:          0 MISS:          0 MSHR_MERGE:          0
cpu0->cpu0_DTLB PREFETCH     ACCESS:          0 HIT:          0 MISS:          0 MSHR_MERGE:          0
cpu0->cpu0_DTLB WRITE        ACCESS:          0 HIT:          0 MISS:          0 MSHR_MERGE:          0
cpu0->cpu0_DTLB TRANSLATION  ACCESS:          0 HIT:          0 MISS:          0 MSHR_MERGE:          0
cpu0->cpu0_DTLB PREFETCH REQUESTED:          0 ISSUED:          0 USEFUL:          0 USELESS:          0
cpu0->cpu0_DTLB AVERAGE MISS LATENCY: 90.91 cycles
cpu0->LLC TOTAL        ACCESS:   10434358 HIT:     280764 MISS:   10153594 MSHR_MERGE:          0
cpu0->LLC LOAD         ACCESS:    4357276 HIT:     182626 MISS:    4174650 MSHR_MERGE:          0
cpu0->LLC RFO          ACCESS:    2976918 HIT:          0 MISS:    2976918 MSHR_MERGE:          0
cpu0->LLC PREFETCH     ACCESS:          0 HIT:          0 MISS:          0 MSHR_MERGE:          0
cpu0->LLC WRITE        ACCESS:    2977359 HIT:      98133 MISS:    2879226 MSHR_MERGE:          0
cpu0->LLC TRANSLATION  ACCESS:     122805 HIT:          5 MISS:     122800 MSHR_MERGE:          0
cpu0->LLC PREFETCH REQUESTED:          0 ISSUED:          0 USEFUL:          0 USELESS:          0
cpu0->LLC AVERAGE MISS LATENCY: 163.4 cycles

DRAM Statistics

Channel 0 RQ ROW_BUFFER_HIT:        470
  ROW_BUFFER_MISS:    7273898
  AVG DBUS CONGESTED CYCLE: 10.82
Channel 0 WQ ROW_BUFFER_HIT:    1019381
  ROW_BUFFER_MISS:    1954724
  FULL:          0
Channel 0 REFRESHES ISSUED:      47567
ADAPTIVE LLC [Pure SHiP w/ Throttle] final stats:
ADAPTIVE LLC ship_reuse_predictions: 253881 ship_streaming_predictions: 8411685 ship_neutral_predictions: 34407
ADAPTIVE LLC total_evictions: 12106317
