[VMEM] WARNING: physical memory size is smaller than virtual memory size.

*** ChampSim Multicore Out-of-Order Simulator ***
Warmup Instructions: 100000000
Simulation Instructions: 500000000
Number of CPUs: 1
Page size: 4096

Off-chip DRAM Size: 16 GiB Channels: 1 Width: 64-bit Data Rate: 3205 MT/s
Heartbeat CPU 0 instructions: 10000000 cycles: 2973829 heartbeat IPC: 3.363 cumulative IPC: 3.363 (Simulation time: 00 hr 00 min 59 sec)
Heartbeat CPU 0 instructions: 20000000 cycles: 5933748 heartbeat IPC: 3.378 cumulative IPC: 3.371 (Simulation time: 00 hr 01 min 58 sec)
Heartbeat CPU 0 instructions: 30000002 cycles: 8894119 heartbeat IPC: 3.378 cumulative IPC: 3.373 (Simulation time: 00 hr 02 min 55 sec)
Heartbeat CPU 0 instructions: 40000004 cycles: 11853275 heartbeat IPC: 3.379 cumulative IPC: 3.375 (Simulation time: 00 hr 03 min 55 sec)
Heartbeat CPU 0 instructions: 50000004 cycles: 14813674 heartbeat IPC: 3.378 cumulative IPC: 3.375 (Simulation time: 00 hr 04 min 53 sec)
Heartbeat CPU 0 instructions: 60000007 cycles: 17773021 heartbeat IPC: 3.379 cumulative IPC: 3.376 (Simulation time: 00 hr 05 min 50 sec)
Heartbeat CPU 0 instructions: 70000007 cycles: 20732418 heartbeat IPC: 3.379 cumulative IPC: 3.376 (Simulation time: 00 hr 06 min 46 sec)
Heartbeat CPU 0 instructions: 80000010 cycles: 23693100 heartbeat IPC: 3.378 cumulative IPC: 3.377 (Simulation time: 00 hr 07 min 43 sec)
Heartbeat CPU 0 instructions: 90000012 cycles: 26652659 heartbeat IPC: 3.379 cumulative IPC: 3.377 (Simulation time: 00 hr 08 min 42 sec)
Warmup finished CPU 0 instructions: 100000000 cycles: 29612007 cumulative IPC: 3.377 (Simulation time: 00 hr 09 min 40 sec)
Warmup complete CPU 0 instructions: 100000000 cycles: 29612007 cumulative IPC: 3.377 (Simulation time: 00 hr 09 min 40 sec)
Heartbeat CPU 0 instructions: 100000015 cycles: 29612010 heartbeat IPC: 3.379 cumulative IPC: 5 (Simulation time: 00 hr 09 min 40 sec)
Heartbeat CPU 0 instructions: 110000016 cycles: 54337351 heartbeat IPC: 0.4044 cumulative IPC: 0.4044 (Simulation time: 00 hr 14 min 36 sec)
Heartbeat CPU 0 instructions: 120000020 cycles: 79070576 heartbeat IPC: 0.4043 cumulative IPC: 0.4044 (Simulation time: 00 hr 19 min 33 sec)
Heartbeat CPU 0 instructions: 130000020 cycles: 103798190 heartbeat IPC: 0.4044 cumulative IPC: 0.4044 (Simulation time: 00 hr 24 min 37 sec)
Heartbeat CPU 0 instructions: 140000024 cycles: 128497843 heartbeat IPC: 0.4049 cumulative IPC: 0.4045 (Simulation time: 00 hr 29 min 33 sec)
Heartbeat CPU 0 instructions: 150000024 cycles: 153214312 heartbeat IPC: 0.4046 cumulative IPC: 0.4045 (Simulation time: 00 hr 34 min 32 sec)
Heartbeat CPU 0 instructions: 160000028 cycles: 177963527 heartbeat IPC: 0.4041 cumulative IPC: 0.4044 (Simulation time: 00 hr 39 min 26 sec)
Heartbeat CPU 0 instructions: 170000028 cycles: 202712869 heartbeat IPC: 0.4041 cumulative IPC: 0.4044 (Simulation time: 00 hr 44 min 21 sec)
Heartbeat CPU 0 instructions: 180000031 cycles: 227423838 heartbeat IPC: 0.4047 cumulative IPC: 0.4044 (Simulation time: 00 hr 49 min 17 sec)
Heartbeat CPU 0 instructions: 190000034 cycles: 252176296 heartbeat IPC: 0.404 cumulative IPC: 0.4044 (Simulation time: 00 hr 54 min 10 sec)
Heartbeat CPU 0 instructions: 200000035 cycles: 276899890 heartbeat IPC: 0.4045 cumulative IPC: 0.4044 (Simulation time: 00 hr 59 min 02 sec)
Heartbeat CPU 0 instructions: 210000038 cycles: 301610398 heartbeat IPC: 0.4047 cumulative IPC: 0.4044 (Simulation time: 01 hr 03 min 53 sec)
Heartbeat CPU 0 instructions: 220000038 cycles: 326379497 heartbeat IPC: 0.4037 cumulative IPC: 0.4044 (Simulation time: 01 hr 08 min 47 sec)
Heartbeat CPU 0 instructions: 230000038 cycles: 351131509 heartbeat IPC: 0.404 cumulative IPC: 0.4043 (Simulation time: 01 hr 13 min 41 sec)
Heartbeat CPU 0 instructions: 240000042 cycles: 375875449 heartbeat IPC: 0.4041 cumulative IPC: 0.4043 (Simulation time: 01 hr 18 min 34 sec)
Heartbeat CPU 0 instructions: 250000042 cycles: 400617236 heartbeat IPC: 0.4042 cumulative IPC: 0.4043 (Simulation time: 01 hr 23 min 56 sec)
Heartbeat CPU 0 instructions: 260000046 cycles: 425355304 heartbeat IPC: 0.4042 cumulative IPC: 0.4043 (Simulation time: 01 hr 29 min 06 sec)
Heartbeat CPU 0 instructions: 270000046 cycles: 447646645 heartbeat IPC: 0.4486 cumulative IPC: 0.4067 (Simulation time: 01 hr 33 min 48 sec)
Heartbeat CPU 0 instructions: 280000047 cycles: 468334694 heartbeat IPC: 0.4834 cumulative IPC: 0.4103 (Simulation time: 01 hr 38 min 04 sec)
Heartbeat CPU 0 instructions: 290000048 cycles: 493160820 heartbeat IPC: 0.4028 cumulative IPC: 0.4099 (Simulation time: 01 hr 43 min 17 sec)
Heartbeat CPU 0 instructions: 300000052 cycles: 517991010 heartbeat IPC: 0.4027 cumulative IPC: 0.4095 (Simulation time: 01 hr 48 min 34 sec)
Heartbeat CPU 0 instructions: 310000052 cycles: 542793269 heartbeat IPC: 0.4032 cumulative IPC: 0.4092 (Simulation time: 01 hr 53 min 41 sec)
Heartbeat CPU 0 instructions: 320000056 cycles: 567597319 heartbeat IPC: 0.4032 cumulative IPC: 0.4089 (Simulation time: 01 hr 58 min 36 sec)
Heartbeat CPU 0 instructions: 330000056 cycles: 592455081 heartbeat IPC: 0.4023 cumulative IPC: 0.4086 (Simulation time: 02 hr 03 min 30 sec)
Heartbeat CPU 0 instructions: 340000060 cycles: 617286046 heartbeat IPC: 0.4027 cumulative IPC: 0.4084 (Simulation time: 02 hr 08 min 00 sec)
Heartbeat CPU 0 instructions: 350000064 cycles: 642139682 heartbeat IPC: 0.4024 cumulative IPC: 0.4081 (Simulation time: 02 hr 12 min 00 sec)
Heartbeat CPU 0 instructions: 360000067 cycles: 666969235 heartbeat IPC: 0.4027 cumulative IPC: 0.4079 (Simulation time: 02 hr 16 min 00 sec)
Heartbeat CPU 0 instructions: 370000068 cycles: 691766284 heartbeat IPC: 0.4033 cumulative IPC: 0.4078 (Simulation time: 02 hr 20 min 14 sec)
Heartbeat CPU 0 instructions: 380000070 cycles: 716595083 heartbeat IPC: 0.4028 cumulative IPC: 0.4076 (Simulation time: 02 hr 24 min 29 sec)
Heartbeat CPU 0 instructions: 390000072 cycles: 741394018 heartbeat IPC: 0.4032 cumulative IPC: 0.4074 (Simulation time: 02 hr 28 min 54 sec)
Heartbeat CPU 0 instructions: 400000075 cycles: 766238767 heartbeat IPC: 0.4025 cumulative IPC: 0.4073 (Simulation time: 02 hr 33 min 16 sec)
Heartbeat CPU 0 instructions: 410000075 cycles: 791044884 heartbeat IPC: 0.4031 cumulative IPC: 0.4071 (Simulation time: 02 hr 37 min 33 sec)
Heartbeat CPU 0 instructions: 420000079 cycles: 815870844 heartbeat IPC: 0.4028 cumulative IPC: 0.407 (Simulation time: 02 hr 41 min 27 sec)
Heartbeat CPU 0 instructions: 430000079 cycles: 840659120 heartbeat IPC: 0.4034 cumulative IPC: 0.4069 (Simulation time: 02 hr 45 min 25 sec)
Heartbeat CPU 0 instructions: 440000083 cycles: 865494526 heartbeat IPC: 0.4027 cumulative IPC: 0.4068 (Simulation time: 02 hr 49 min 16 sec)
Heartbeat CPU 0 instructions: 450000083 cycles: 890325825 heartbeat IPC: 0.4027 cumulative IPC: 0.4066 (Simulation time: 02 hr 53 min 07 sec)
Heartbeat CPU 0 instructions: 460000085 cycles: 915145731 heartbeat IPC: 0.4029 cumulative IPC: 0.4065 (Simulation time: 02 hr 56 min 19 sec)
Heartbeat CPU 0 instructions: 470000086 cycles: 939977853 heartbeat IPC: 0.4027 cumulative IPC: 0.4064 (Simulation time: 02 hr 59 min 32 sec)
Heartbeat CPU 0 instructions: 480000089 cycles: 964818341 heartbeat IPC: 0.4026 cumulative IPC: 0.4063 (Simulation time: 03 hr 02 min 43 sec)
Heartbeat CPU 0 instructions: 490000090 cycles: 989650730 heartbeat IPC: 0.4027 cumulative IPC: 0.4062 (Simulation time: 03 hr 05 min 55 sec)
Heartbeat CPU 0 instructions: 500000094 cycles: 1014459502 heartbeat IPC: 0.4031 cumulative IPC: 0.4062 (Simulation time: 03 hr 09 min 55 sec)
Heartbeat CPU 0 instructions: 510000098 cycles: 1039306072 heartbeat IPC: 0.4025 cumulative IPC: 0.4061 (Simulation time: 03 hr 13 min 55 sec)
Heartbeat CPU 0 instructions: 520000102 cycles: 1064114307 heartbeat IPC: 0.4031 cumulative IPC: 0.406 (Simulation time: 03 hr 17 min 45 sec)
Heartbeat CPU 0 instructions: 530000102 cycles: 1088918490 heartbeat IPC: 0.4032 cumulative IPC: 0.4059 (Simulation time: 03 hr 21 min 31 sec)
Heartbeat CPU 0 instructions: 540000106 cycles: 1113722899 heartbeat IPC: 0.4032 cumulative IPC: 0.4059 (Simulation time: 03 hr 25 min 31 sec)
Heartbeat CPU 0 instructions: 550000106 cycles: 1138537649 heartbeat IPC: 0.403 cumulative IPC: 0.4058 (Simulation time: 03 hr 29 min 06 sec)
Heartbeat CPU 0 instructions: 560000108 cycles: 1163351413 heartbeat IPC: 0.403 cumulative IPC: 0.4057 (Simulation time: 03 hr 33 min 07 sec)
Heartbeat CPU 0 instructions: 570000109 cycles: 1188162873 heartbeat IPC: 0.403 cumulative IPC: 0.4057 (Simulation time: 03 hr 37 min 14 sec)
Heartbeat CPU 0 instructions: 580000112 cycles: 1212983216 heartbeat IPC: 0.4029 cumulative IPC: 0.4056 (Simulation time: 03 hr 40 min 51 sec)
Heartbeat CPU 0 instructions: 590000113 cycles: 1237781290 heartbeat IPC: 0.4033 cumulative IPC: 0.4056 (Simulation time: 03 hr 44 min 21 sec)
Simulation finished CPU 0 instructions: 500000003 cycles: 1232973925 cumulative IPC: 0.4055 (Simulation time: 03 hr 47 min 38 sec)
Simulation complete CPU 0 instructions: 500000003 cycles: 1232973925 cumulative IPC: 0.4055 (Simulation time: 03 hr 47 min 38 sec)

ChampSim completed all CPUs

=== Simulation ===
CPU 0 runs traces/T4.xz

Region of Interest Statistics

CPU 0 cumulative IPC: 0.4055 instructions: 500000003 cycles: 1232973925
CPU 0 Branch Prediction Accuracy: 99.63% MPKI: 0.06786 Average ROB Occupancy at Mispredict: 76.51
Branch type MPKI
BRANCH_DIRECT_JUMP: 0.000178
BRANCH_INDIRECT: 0
BRANCH_CONDITIONAL: 0.05161
BRANCH_DIRECT_CALL: 3.2e-05
BRANCH_INDIRECT_CALL: 0
BRANCH_RETURN: 0.01604

cpu0->cpu0_STLB TOTAL        ACCESS:     116434 HIT:      48248 MISS:      68186 MSHR_MERGE:          0
cpu0->cpu0_STLB LOAD         ACCESS:     116434 HIT:      48248 MISS:      68186 MSHR_MERGE:          0
cpu0->cpu0_STLB RFO          ACCESS:          0 HIT:          0 MISS:          0 MSHR_MERGE:          0
cpu0->cpu0_STLB PREFETCH     ACCESS:          0 HIT:          0 MISS:          0 MSHR_MERGE:          0
cpu0->cpu0_STLB WRITE        ACCESS:          0 HIT:          0 MISS:          0 MSHR_MERGE:          0
cpu0->cpu0_STLB TRANSLATION  ACCESS:          0 HIT:          0 MISS:          0 MSHR_MERGE:          0
cpu0->cpu0_STLB PREFETCH REQUESTED:          0 ISSUED:          0 USEFUL:          0 USELESS:          0
cpu0->cpu0_STLB AVERAGE MISS LATENCY: 661.9 cycles
cpu0->cpu0_L2C TOTAL        ACCESS:   11017709 HIT:    6187725 MISS:    4829984 MSHR_MERGE:          0
cpu0->cpu0_L2C LOAD         ACCESS:    6564966 HIT:    1812677 MISS:    4752289 MSHR_MERGE:          0
cpu0->cpu0_L2C RFO          ACCESS:       9630 HIT:       8993 MISS:        637 MSHR_MERGE:          0
cpu0->cpu0_L2C PREFETCH     ACCESS:          0 HIT:          0 MISS:          0 MSHR_MERGE:          0
cpu0->cpu0_L2C WRITE        ACCESS:    4364158 HIT:    4364158 MISS:          0 MSHR_MERGE:          0
cpu0->cpu0_L2C TRANSLATION  ACCESS:      78955 HIT:       1897 MISS:      77058 MSHR_MERGE:          0
cpu0->cpu0_L2C PREFETCH REQUESTED:          0 ISSUED:          0 USEFUL:          0 USELESS:          0
cpu0->cpu0_L2C AVERAGE MISS LATENCY: 212 cycles
cpu0->cpu0_L1I TOTAL        ACCESS:   93114877 HIT:   93114473 MISS:        404 MSHR_MERGE:        127
cpu0->cpu0_L1I LOAD         ACCESS:   93114877 HIT:   93114473 MISS:        404 MSHR_MERGE:        127
cpu0->cpu0_L1I RFO          ACCESS:          0 HIT:          0 MISS:          0 MSHR_MERGE:          0
cpu0->cpu0_L1I PREFETCH     ACCESS:          0 HIT:          0 MISS:          0 MSHR_MERGE:          0
cpu0->cpu0_L1I WRITE        ACCESS:          0 HIT:          0 MISS:          0 MSHR_MERGE:          0
cpu0->cpu0_L1I TRANSLATION  ACCESS:          0 HIT:          0 MISS:          0 MSHR_MERGE:          0
cpu0->cpu0_L1I PREFETCH REQUESTED:          0 ISSUED:          0 USEFUL:          0 USELESS:          0
cpu0->cpu0_L1I AVERAGE MISS LATENCY: 223.4 cycles
cpu0->cpu0_L1D TOTAL        ACCESS:  158404488 HIT:  130240343 MISS:   28164145 MSHR_MERGE:   21510871
cpu0->cpu0_L1D LOAD         ACCESS:  123063542 HIT:   95008945 MISS:   28054597 MSHR_MERGE:   21489908
cpu0->cpu0_L1D RFO          ACCESS:          0 HIT:          0 MISS:          0 MSHR_MERGE:          0
cpu0->cpu0_L1D PREFETCH     ACCESS:          0 HIT:          0 MISS:          0 MSHR_MERGE:          0
cpu0->cpu0_L1D WRITE        ACCESS:   35204338 HIT:   35173746 MISS:      30592 MSHR_MERGE:      20962
cpu0->cpu0_L1D TRANSLATION  ACCESS:     136608 HIT:      57652 MISS:      78956 MSHR_MERGE:          1
cpu0->cpu0_L1D PREFETCH REQUESTED:          0 ISSUED:          0 USEFUL:          0 USELESS:          0
cpu0->cpu0_L1D AVERAGE MISS LATENCY: 162.6 cycles
cpu0->cpu0_ITLB TOTAL        ACCESS:   75709069 HIT:   75709044 MISS:         25 MSHR_MERGE:         14
cpu0->cpu0_ITLB LOAD         ACCESS:   75709069 HIT:   75709044 MISS:         25 MSHR_MERGE:         14
cpu0->cpu0_ITLB RFO          ACCESS:          0 HIT:          0 MISS:          0 MSHR_MERGE:          0
cpu0->cpu0_ITLB PREFETCH     ACCESS:          0 HIT:          0 MISS:          0 MSHR_MERGE:          0
cpu0->cpu0_ITLB WRITE        ACCESS:          0 HIT:          0 MISS:          0 MSHR_MERGE:          0
cpu0->cpu0_ITLB TRANSLATION  ACCESS:          0 HIT:          0 MISS:          0 MSHR_MERGE:          0
cpu0->cpu0_ITLB PREFETCH REQUESTED:          0 ISSUED:          0 USEFUL:          0 USELESS:          0
cpu0->cpu0_ITLB AVERAGE MISS LATENCY: 802.6 cycles
cpu0->cpu0_DTLB TOTAL        ACCESS:  148359994 HIT:  147920607 MISS:     439387 MSHR_MERGE:     322964
cpu0->cpu0_DTLB LOAD         ACCESS:  148359994 HIT:  147920607 MISS:     439387 MSHR_MERGE:     322964
cpu0->cpu0_DTLB RFO          ACCESS:          0 HIT:          0 MISS:          0 MSHR_MERGE:          0
cpu0->cpu0_DTLB PREFETCH     ACCESS:          0 HIT:          0 MISS:          0 MSHR_MERGE:          0
cpu0->cpu0_DTLB WRITE        ACCESS:          0 HIT:          0 MISS:          0 MSHR_MERGE:          0
cpu0->cpu0_DTLB TRANSLATION  ACCESS:          0 HIT:          0 MISS:          0 MSHR_MERGE:          0
cpu0->cpu0_DTLB PREFETCH REQUESTED:          0 ISSUED:          0 USEFUL:          0 USELESS:          0
cpu0->cpu0_DTLB AVERAGE MISS LATENCY: 393.2 cycles
cpu0->LLC TOTAL        ACCESS:    9184987 HIT:     540701 MISS:    8644286 MSHR_MERGE:          0
cpu0->LLC LOAD         ACCESS:    4752289 HIT:     397463 MISS:    4354826 MSHR_MERGE:          0
cpu0->LLC RFO          ACCESS:        637 HIT:        631 MISS:          6 MSHR_MERGE:          0
cpu0->LLC PREFETCH     ACCESS:          0 HIT:          0 MISS:          0 MSHR_MERGE:          0
cpu0->LLC WRITE        ACCESS:    4355003 HIT:     142592 MISS:    4212411 MSHR_MERGE:          0
cpu0->LLC TRANSLATION  ACCESS:      77058 HIT:         15 MISS:      77043 MSHR_MERGE:          0
cpu0->LLC PREFETCH REQUESTED:          0 ISSUED:          0 USEFUL:          0 USELESS:          0
cpu0->LLC AVERAGE MISS LATENCY: 114 cycles

DRAM Statistics

Channel 0 RQ ROW_BUFFER_HIT:      68234
  ROW_BUFFER_MISS:    4363641
  AVG DBUS CONGESTED CYCLE: 11.2
Channel 0 WQ ROW_BUFFER_HIT:    1765528
  ROW_BUFFER_MISS:    2586929
  FULL:          0
Channel 0 REFRESHES ISSUED:     102748
ADAPTIVE LLC [Pure SHiP w/ Throttle] final stats:
ADAPTIVE LLC ship_reuse_predictions: 1377 ship_streaming_predictions: 5301265 ship_neutral_predictions: 23778
ADAPTIVE LLC total_evictions: 10319906
