[VMEM] WARNING: physical memory size is smaller than virtual memory size.
WARNING: option --warmup_instructions is deprecated. Use --warmup-instructions instead.
WARNING: option --simulation_instructions is deprecated. Use --simulation-instructions instead.

*** ChampSim Multicore Out-of-Order Simulator ***
Warmup Instructions: 20000000
Simulation Instructions: 50000000
Number of CPUs: 1
Page size: 4096

Off-chip DRAM Size: 16 GiB Channels: 1 Width: 64-bit Data Rate: 3205 MT/s
Heartbeat CPU 0 instructions: 10000003 cycles: 6360181 heartbeat IPC: 1.572 cumulative IPC: 1.572 (Simulation time: 00 hr 01 min 13 sec)
Heartbeat CPU 0 instructions: 20000003 cycles: 12386138 heartbeat IPC: 1.659 cumulative IPC: 1.615 (Simulation time: 00 hr 02 min 28 sec)
Warmup finished CPU 0 instructions: 20000003 cycles: 12386138 cumulative IPC: 1.615 (Simulation time: 00 hr 02 min 28 sec)
Warmup complete CPU 0 instructions: 20000003 cycles: 12386138 cumulative IPC: 1.615 (Simulation time: 00 hr 02 min 28 sec)
Heartbeat CPU 0 instructions: 30000003 cycles: 29106722 heartbeat IPC: 0.5981 cumulative IPC: 0.5981 (Simulation time: 00 hr 04 min 41 sec)
Heartbeat CPU 0 instructions: 40000004 cycles: 38782375 heartbeat IPC: 1.034 cumulative IPC: 0.7577 (Simulation time: 00 hr 06 min 09 sec)
Heartbeat CPU 0 instructions: 50000004 cycles: 52237424 heartbeat IPC: 0.7432 cumulative IPC: 0.7528 (Simulation time: 00 hr 08 min 04 sec)
Heartbeat CPU 0 instructions: 60000006 cycles: 72793167 heartbeat IPC: 0.4865 cumulative IPC: 0.6622 (Simulation time: 00 hr 10 min 28 sec)
Heartbeat CPU 0 instructions: 70000006 cycles: 85746281 heartbeat IPC: 0.772 cumulative IPC: 0.6816 (Simulation time: 00 hr 12 min 05 sec)
Simulation finished CPU 0 instructions: 50000003 cycles: 73360143 cumulative IPC: 0.6816 (Simulation time: 00 hr 12 min 05 sec)
Simulation complete CPU 0 instructions: 50000003 cycles: 73360143 cumulative IPC: 0.6816 (Simulation time: 00 hr 12 min 05 sec)

ChampSim completed all CPUs

=== Simulation ===
CPU 0 runs traces/429.mcf-217B.champsimtrace.xz

Region of Interest Statistics

CPU 0 cumulative IPC: 0.6816 instructions: 50000003 cycles: 73360143
CPU 0 Branch Prediction Accuracy: 98.95% MPKI: 1.194 Average ROB Occupancy at Mispredict: 122.3
Branch type MPKI
BRANCH_DIRECT_JUMP: 0
BRANCH_INDIRECT: 0
BRANCH_CONDITIONAL: 1.194
BRANCH_DIRECT_CALL: 0
BRANCH_INDIRECT_CALL: 0
BRANCH_RETURN: 0

cpu0->cpu0_STLB TOTAL        ACCESS:     103613 HIT:     100143 MISS:       3470 MSHR_MERGE:          0
cpu0->cpu0_STLB LOAD         ACCESS:     103613 HIT:     100143 MISS:       3470 MSHR_MERGE:          0
cpu0->cpu0_STLB RFO          ACCESS:          0 HIT:          0 MISS:          0 MSHR_MERGE:          0
cpu0->cpu0_STLB PREFETCH     ACCESS:          0 HIT:          0 MISS:          0 MSHR_MERGE:          0
cpu0->cpu0_STLB WRITE        ACCESS:          0 HIT:          0 MISS:          0 MSHR_MERGE:          0
cpu0->cpu0_STLB TRANSLATION  ACCESS:          0 HIT:          0 MISS:          0 MSHR_MERGE:          0
cpu0->cpu0_STLB PREFETCH REQUESTED:          0 ISSUED:          0 USEFUL:          0 USELESS:          0
cpu0->cpu0_STLB AVERAGE MISS LATENCY: 636 cycles
cpu0->cpu0_L2C TOTAL        ACCESS:    9767774 HIT:    4205972 MISS:    5561802 MSHR_MERGE:    2726847
cpu0->cpu0_L2C LOAD         ACCESS:    2598505 HIT:    1771292 MISS:     827213 MSHR_MERGE:     596199
cpu0->cpu0_L2C RFO          ACCESS:       1576 HIT:       1469 MISS:        107 MSHR_MERGE:          0
cpu0->cpu0_L2C PREFETCH     ACCESS:    7066257 HIT:    2336831 MISS:    4729426 MSHR_MERGE:    2130648
cpu0->cpu0_L2C WRITE        ACCESS:      96247 HIT:      95498 MISS:        749 MSHR_MERGE:          0
cpu0->cpu0_L2C TRANSLATION  ACCESS:       5189 HIT:        882 MISS:       4307 MSHR_MERGE:          0
cpu0->cpu0_L2C PREFETCH REQUESTED:    7072084 ISSUED:    7066245 USEFUL:    2348117 USELESS:     152054
cpu0->cpu0_L2C AVERAGE MISS LATENCY: 83.76 cycles
cpu0->cpu0_L1I TOTAL        ACCESS:    9362275 HIT:    9362275 MISS:          0 MSHR_MERGE:          0
cpu0->cpu0_L1I LOAD         ACCESS:    9362275 HIT:    9362275 MISS:          0 MSHR_MERGE:          0
cpu0->cpu0_L1I RFO          ACCESS:          0 HIT:          0 MISS:          0 MSHR_MERGE:          0
cpu0->cpu0_L1I PREFETCH     ACCESS:          0 HIT:          0 MISS:          0 MSHR_MERGE:          0
cpu0->cpu0_L1I WRITE        ACCESS:          0 HIT:          0 MISS:          0 MSHR_MERGE:          0
cpu0->cpu0_L1I TRANSLATION  ACCESS:          0 HIT:          0 MISS:          0 MSHR_MERGE:          0
cpu0->cpu0_L1I PREFETCH REQUESTED:          0 ISSUED:          0 USEFUL:          0 USELESS:          0
cpu0->cpu0_L1I AVERAGE MISS LATENCY: - cycles
cpu0->cpu0_L1D TOTAL        ACCESS:   16610255 HIT:   13896330 MISS:    2713925 MSHR_MERGE:     108620
cpu0->cpu0_L1D LOAD         ACCESS:    8628110 HIT:    5922969 MISS:    2705141 MSHR_MERGE:     106601
cpu0->cpu0_L1D RFO          ACCESS:          0 HIT:          0 MISS:          0 MSHR_MERGE:          0
cpu0->cpu0_L1D PREFETCH     ACCESS:          0 HIT:          0 MISS:          0 MSHR_MERGE:          0
cpu0->cpu0_L1D WRITE        ACCESS:    7975192 HIT:    7971600 MISS:       3592 MSHR_MERGE:       2016
cpu0->cpu0_L1D TRANSLATION  ACCESS:       6953 HIT:       1761 MISS:       5192 MSHR_MERGE:          3
cpu0->cpu0_L1D PREFETCH REQUESTED:          0 ISSUED:          0 USEFUL:          0 USELESS:          0
cpu0->cpu0_L1D AVERAGE MISS LATENCY: 35.09 cycles
cpu0->cpu0_ITLB TOTAL        ACCESS:    8184058 HIT:    8184058 MISS:          0 MSHR_MERGE:          0
cpu0->cpu0_ITLB LOAD         ACCESS:    8184058 HIT:    8184058 MISS:          0 MSHR_MERGE:          0
cpu0->cpu0_ITLB RFO          ACCESS:          0 HIT:          0 MISS:          0 MSHR_MERGE:          0
cpu0->cpu0_ITLB PREFETCH     ACCESS:          0 HIT:          0 MISS:          0 MSHR_MERGE:          0
cpu0->cpu0_ITLB WRITE        ACCESS:          0 HIT:          0 MISS:          0 MSHR_MERGE:          0
cpu0->cpu0_ITLB TRANSLATION  ACCESS:          0 HIT:          0 MISS:          0 MSHR_MERGE:          0
cpu0->cpu0_ITLB PREFETCH REQUESTED:          0 ISSUED:          0 USEFUL:          0 USELESS:          0
cpu0->cpu0_ITLB AVERAGE MISS LATENCY: - cycles
cpu0->cpu0_DTLB TOTAL        ACCESS:   15086734 HIT:   14953732 MISS:     133002 MSHR_MERGE:      29389
cpu0->cpu0_DTLB LOAD         ACCESS:   15086734 HIT:   14953732 MISS:     133002 MSHR_MERGE:      29389
cpu0->cpu0_DTLB RFO          ACCESS:          0 HIT:          0 MISS:          0 MSHR_MERGE:          0
cpu0->cpu0_DTLB PREFETCH     ACCESS:          0 HIT:          0 MISS:          0 MSHR_MERGE:          0
cpu0->cpu0_DTLB WRITE        ACCESS:          0 HIT:          0 MISS:          0 MSHR_MERGE:          0
cpu0->cpu0_DTLB TRANSLATION  ACCESS:          0 HIT:          0 MISS:          0 MSHR_MERGE:          0
cpu0->cpu0_DTLB PREFETCH REQUESTED:          0 ISSUED:          0 USEFUL:          0 USELESS:          0
cpu0->cpu0_DTLB AVERAGE MISS LATENCY: 25.33 cycles
cpu0->LLC TOTAL        ACCESS:    2914956 HIT:     735564 MISS:    2179392 MSHR_MERGE:      61654
cpu0->LLC LOAD         ACCESS:     231013 HIT:      37390 MISS:     193623 MSHR_MERGE:         30
cpu0->LLC RFO          ACCESS:        107 HIT:         77 MISS:         30 MSHR_MERGE:          0
cpu0->LLC PREFETCH     ACCESS:    2598775 HIT:     678937 MISS:    1919838 MSHR_MERGE:      61624
cpu0->LLC WRITE        ACCESS:      80754 HIT:      19129 MISS:      61625 MSHR_MERGE:          0
cpu0->LLC TRANSLATION  ACCESS:       4307 HIT:         31 MISS:       4276 MSHR_MERGE:          0
cpu0->LLC PREFETCH REQUESTED:          0 ISSUED:          0 USEFUL:          0 USELESS:          0
cpu0->LLC AVERAGE MISS LATENCY: 122.5 cycles

DRAM Statistics

Channel 0 RQ ROW_BUFFER_HIT:     138285
  ROW_BUFFER_MISS:    1917343
  AVG DBUS CONGESTED CYCLE: 6.832
Channel 0 WQ ROW_BUFFER_HIT:      12304
  ROW_BUFFER_MISS:      64556
  FULL:          0
Channel 0 REFRESHES ISSUED:       6113
