[VMEM] WARNING: physical memory size is smaller than virtual memory size.
WARNING: option --warmup_instructions is deprecated. Use --warmup-instructions instead.
WARNING: option --simulation_instructions is deprecated. Use --simulation-instructions instead.

*** ChampSim Multicore Out-of-Order Simulator ***
Warmup Instructions: 20000000
Simulation Instructions: 50000000
Number of CPUs: 1
Page size: 4096

Off-chip DRAM Size: 16 GiB Channels: 1 Width: 64-bit Data Rate: 3205 MT/s
Heartbeat CPU 0 instructions: 10000001 cycles: 5055382 heartbeat IPC: 1.978 cumulative IPC: 1.978 (Simulation time: 00 hr 01 min 07 sec)
Heartbeat CPU 0 instructions: 20000002 cycles: 10040980 heartbeat IPC: 2.006 cumulative IPC: 1.992 (Simulation time: 00 hr 02 min 07 sec)
Warmup finished CPU 0 instructions: 20000002 cycles: 10040980 cumulative IPC: 1.992 (Simulation time: 00 hr 02 min 07 sec)
Warmup complete CPU 0 instructions: 20000002 cycles: 10040980 cumulative IPC: 1.992 (Simulation time: 00 hr 02 min 07 sec)
Heartbeat CPU 0 instructions: 30000005 cycles: 41114624 heartbeat IPC: 0.3218 cumulative IPC: 0.3218 (Simulation time: 00 hr 04 min 37 sec)
Heartbeat CPU 0 instructions: 40000005 cycles: 72138559 heartbeat IPC: 0.3223 cumulative IPC: 0.3221 (Simulation time: 00 hr 07 min 10 sec)
Heartbeat CPU 0 instructions: 50000007 cycles: 103800651 heartbeat IPC: 0.3158 cumulative IPC: 0.32 (Simulation time: 00 hr 09 min 41 sec)
Heartbeat CPU 0 instructions: 60000007 cycles: 135229242 heartbeat IPC: 0.3182 cumulative IPC: 0.3195 (Simulation time: 00 hr 12 min 18 sec)
Simulation finished CPU 0 instructions: 50000002 cycles: 157090732 cumulative IPC: 0.3183 (Simulation time: 00 hr 14 min 51 sec)
Simulation complete CPU 0 instructions: 50000002 cycles: 157090732 cumulative IPC: 0.3183 (Simulation time: 00 hr 14 min 51 sec)

ChampSim completed all CPUs

=== Simulation ===
CPU 0 runs traces/605.mcf_s-1152B.champsimtrace.xz

Region of Interest Statistics

CPU 0 cumulative IPC: 0.3183 instructions: 50000002 cycles: 157090732
CPU 0 Branch Prediction Accuracy: 90.19% MPKI: 24.48 Average ROB Occupancy at Mispredict: 21.53
Branch type MPKI
BRANCH_DIRECT_JUMP: 0.2057
BRANCH_INDIRECT: 0
BRANCH_CONDITIONAL: 24.27
BRANCH_DIRECT_CALL: 0
BRANCH_INDIRECT_CALL: 0.0036
BRANCH_RETURN: 2e-05

cpu0->cpu0_STLB TOTAL        ACCESS:    1300650 HIT:    1289111 MISS:      11539 MSHR_MERGE:          0
cpu0->cpu0_STLB LOAD         ACCESS:    1300650 HIT:    1289111 MISS:      11539 MSHR_MERGE:          0
cpu0->cpu0_STLB RFO          ACCESS:          0 HIT:          0 MISS:          0 MSHR_MERGE:          0
cpu0->cpu0_STLB PREFETCH     ACCESS:          0 HIT:          0 MISS:          0 MSHR_MERGE:          0
cpu0->cpu0_STLB WRITE        ACCESS:          0 HIT:          0 MISS:          0 MSHR_MERGE:          0
cpu0->cpu0_STLB TRANSLATION  ACCESS:          0 HIT:          0 MISS:          0 MSHR_MERGE:          0
cpu0->cpu0_STLB PREFETCH REQUESTED:          0 ISSUED:          0 USEFUL:          0 USELESS:          0
cpu0->cpu0_STLB AVERAGE MISS LATENCY: 614.1 cycles
cpu0->cpu0_L2C TOTAL        ACCESS:    8997500 HIT:    3025835 MISS:    5971665 MSHR_MERGE:     274145
cpu0->cpu0_L2C LOAD         ACCESS:    2552771 HIT:    1078972 MISS:    1473799 MSHR_MERGE:      30454
cpu0->cpu0_L2C RFO          ACCESS:     187398 HIT:      25600 MISS:     161798 MSHR_MERGE:          1
cpu0->cpu0_L2C PREFETCH     ACCESS:    5977975 HIT:    1656911 MISS:    4321064 MSHR_MERGE:     243690
cpu0->cpu0_L2C WRITE        ACCESS:     265764 HIT:     264253 MISS:       1511 MSHR_MERGE:          0
cpu0->cpu0_L2C TRANSLATION  ACCESS:      13592 HIT:         99 MISS:      13493 MSHR_MERGE:          0
cpu0->cpu0_L2C PREFETCH REQUESTED:    6264953 ISSUED:    5977976 USEFUL:     793648 USELESS:    3056535
cpu0->cpu0_L2C AVERAGE MISS LATENCY: 59.86 cycles
cpu0->cpu0_L1I TOTAL        ACCESS:     438793 HIT:     438793 MISS:          0 MSHR_MERGE:          0
cpu0->cpu0_L1I LOAD         ACCESS:     438793 HIT:     438793 MISS:          0 MSHR_MERGE:          0
cpu0->cpu0_L1I RFO          ACCESS:          0 HIT:          0 MISS:          0 MSHR_MERGE:          0
cpu0->cpu0_L1I PREFETCH     ACCESS:          0 HIT:          0 MISS:          0 MSHR_MERGE:          0
cpu0->cpu0_L1I WRITE        ACCESS:          0 HIT:          0 MISS:          0 MSHR_MERGE:          0
cpu0->cpu0_L1I TRANSLATION  ACCESS:          0 HIT:          0 MISS:          0 MSHR_MERGE:          0
cpu0->cpu0_L1I PREFETCH REQUESTED:          0 ISSUED:          0 USEFUL:          0 USELESS:          0
cpu0->cpu0_L1I AVERAGE MISS LATENCY: - cycles
cpu0->cpu0_L1D TOTAL        ACCESS:   17882828 HIT:   14278202 MISS:    3604626 MSHR_MERGE:     850861
cpu0->cpu0_L1D LOAD         ACCESS:   12696415 HIT:    9615243 MISS:    3081172 MSHR_MERGE:     528400
cpu0->cpu0_L1D RFO          ACCESS:          0 HIT:          0 MISS:          0 MSHR_MERGE:          0
cpu0->cpu0_L1D PREFETCH     ACCESS:          0 HIT:          0 MISS:          0 MSHR_MERGE:          0
cpu0->cpu0_L1D WRITE        ACCESS:    5163212 HIT:    4653350 MISS:     509862 MSHR_MERGE:     322461
cpu0->cpu0_L1D TRANSLATION  ACCESS:      23201 HIT:       9609 MISS:      13592 MSHR_MERGE:          0
cpu0->cpu0_L1D PREFETCH REQUESTED:          0 ISSUED:          0 USEFUL:          0 USELESS:          0
cpu0->cpu0_L1D AVERAGE MISS LATENCY: 44.82 cycles
cpu0->cpu0_ITLB TOTAL        ACCESS:     408132 HIT:     408132 MISS:          0 MSHR_MERGE:          0
cpu0->cpu0_ITLB LOAD         ACCESS:     408132 HIT:     408132 MISS:          0 MSHR_MERGE:          0
cpu0->cpu0_ITLB RFO          ACCESS:          0 HIT:          0 MISS:          0 MSHR_MERGE:          0
cpu0->cpu0_ITLB PREFETCH     ACCESS:          0 HIT:          0 MISS:          0 MSHR_MERGE:          0
cpu0->cpu0_ITLB WRITE        ACCESS:          0 HIT:          0 MISS:          0 MSHR_MERGE:          0
cpu0->cpu0_ITLB TRANSLATION  ACCESS:          0 HIT:          0 MISS:          0 MSHR_MERGE:          0
cpu0->cpu0_ITLB PREFETCH REQUESTED:          0 ISSUED:          0 USEFUL:          0 USELESS:          0
cpu0->cpu0_ITLB AVERAGE MISS LATENCY: - cycles
cpu0->cpu0_DTLB TOTAL        ACCESS:   16832571 HIT:   15281465 MISS:    1551106 MSHR_MERGE:     250456
cpu0->cpu0_DTLB LOAD         ACCESS:   16832571 HIT:   15281465 MISS:    1551106 MSHR_MERGE:     250456
cpu0->cpu0_DTLB RFO          ACCESS:          0 HIT:          0 MISS:          0 MSHR_MERGE:          0
cpu0->cpu0_DTLB PREFETCH     ACCESS:          0 HIT:          0 MISS:          0 MSHR_MERGE:          0
cpu0->cpu0_DTLB WRITE        ACCESS:          0 HIT:          0 MISS:          0 MSHR_MERGE:          0
cpu0->cpu0_DTLB TRANSLATION  ACCESS:          0 HIT:          0 MISS:          0 MSHR_MERGE:          0
cpu0->cpu0_DTLB PREFETCH REQUESTED:          0 ISSUED:          0 USEFUL:          0 USELESS:          0
cpu0->cpu0_DTLB AVERAGE MISS LATENCY: 9.457 cycles
cpu0->LLC TOTAL        ACCESS:    5916110 HIT:    3604359 MISS:    2311751 MSHR_MERGE:      36308
cpu0->LLC LOAD         ACCESS:    1443345 HIT:    1012150 MISS:     431195 MSHR_MERGE:        174
cpu0->LLC RFO          ACCESS:     161797 HIT:     149614 MISS:      12183 MSHR_MERGE:          0
cpu0->LLC PREFETCH     ACCESS:    4077374 HIT:    2236536 MISS:    1840838 MSHR_MERGE:      36134
cpu0->LLC WRITE        ACCESS:     220101 HIT:     206033 MISS:      14068 MSHR_MERGE:          0
cpu0->LLC TRANSLATION  ACCESS:      13493 HIT:         26 MISS:      13467 MSHR_MERGE:          0
cpu0->LLC PREFETCH REQUESTED:          0 ISSUED:          0 USEFUL:          0 USELESS:          0
cpu0->LLC AVERAGE MISS LATENCY: 148.3 cycles

DRAM Statistics

Channel 0 RQ ROW_BUFFER_HIT:      52943
  ROW_BUFFER_MISS:    2208355
  AVG DBUS CONGESTED CYCLE: 12.34
Channel 0 WQ ROW_BUFFER_HIT:       5253
  ROW_BUFFER_MISS:      17113
  FULL:          0
Channel 0 REFRESHES ISSUED:      13091
