[VMEM] WARNING: physical memory size is smaller than virtual memory size.
WARNING: option --warmup_instructions is deprecated. Use --warmup-instructions instead.
WARNING: option --simulation_instructions is deprecated. Use --simulation-instructions instead.

*** ChampSim Multicore Out-of-Order Simulator ***
Warmup Instructions: 20000000
Simulation Instructions: 50000000
Number of CPUs: 1
Page size: 8192

Off-chip DRAM Size: 16 GiB Channels: 1 Width: 64-bit Data Rate: 3205 MT/s
Heartbeat CPU 0 instructions: 10000002 cycles: 6003883 heartbeat IPC: 1.666 cumulative IPC: 1.666 (Simulation time: 00 hr 01 min 10 sec)
Warmup finished CPU 0 instructions: 20000000 cycles: 11885002 cumulative IPC: 1.683 (Simulation time: 00 hr 02 min 23 sec)
Warmup complete CPU 0 instructions: 20000000 cycles: 11885002 cumulative IPC: 1.683 (Simulation time: 00 hr 02 min 23 sec)
Heartbeat CPU 0 instructions: 20000002 cycles: 11885003 heartbeat IPC: 1.7 cumulative IPC: 2 (Simulation time: 00 hr 02 min 23 sec)
Heartbeat CPU 0 instructions: 30000003 cycles: 59420550 heartbeat IPC: 0.2104 cumulative IPC: 0.2104 (Simulation time: 00 hr 08 min 02 sec)
Heartbeat CPU 0 instructions: 40000004 cycles: 77234081 heartbeat IPC: 0.5614 cumulative IPC: 0.306 (Simulation time: 00 hr 09 min 52 sec)
Heartbeat CPU 0 instructions: 50000004 cycles: 110106531 heartbeat IPC: 0.3042 cumulative IPC: 0.3054 (Simulation time: 00 hr 13 min 02 sec)
Heartbeat CPU 0 instructions: 60000006 cycles: 172436498 heartbeat IPC: 0.1604 cumulative IPC: 0.2491 (Simulation time: 00 hr 18 min 43 sec)
Simulation finished CPU 0 instructions: 50000000 cycles: 191747009 cumulative IPC: 0.2608 (Simulation time: 00 hr 21 min 46 sec)
Simulation complete CPU 0 instructions: 50000000 cycles: 191747009 cumulative IPC: 0.2608 (Simulation time: 00 hr 21 min 46 sec)

ChampSim completed all CPUs

=== Simulation ===
CPU 0 runs traces/429.mcf-217B.champsimtrace.xz

Region of Interest Statistics

CPU 0 cumulative IPC: 0.2608 instructions: 50000000 cycles: 191747009
CPU 0 Branch Prediction Accuracy: 98.95% MPKI: 1.194 Average ROB Occupancy at Mispredict: 104
Branch type MPKI
BRANCH_DIRECT_JUMP: 0
BRANCH_INDIRECT: 0
BRANCH_CONDITIONAL: 1.194
BRANCH_DIRECT_CALL: 0
BRANCH_INDIRECT_CALL: 0
BRANCH_RETURN: 0

cpu0->cpu0_STLB TOTAL        ACCESS:      58039 HIT:      56189 MISS:       1850 MSHR_MERGE:          0
cpu0->cpu0_STLB LOAD         ACCESS:      58039 HIT:      56189 MISS:       1850 MSHR_MERGE:          0
cpu0->cpu0_STLB RFO          ACCESS:          0 HIT:          0 MISS:          0 MSHR_MERGE:          0
cpu0->cpu0_STLB PREFETCH     ACCESS:          0 HIT:          0 MISS:          0 MSHR_MERGE:          0
cpu0->cpu0_STLB WRITE        ACCESS:          0 HIT:          0 MISS:          0 MSHR_MERGE:          0
cpu0->cpu0_STLB TRANSLATION  ACCESS:          0 HIT:          0 MISS:          0 MSHR_MERGE:          0
cpu0->cpu0_STLB PREFETCH REQUESTED:          0 ISSUED:          0 USEFUL:          0 USELESS:          0
cpu0->cpu0_STLB AVERAGE MISS LATENCY: 684.7 cycles
cpu0->cpu0_L2C TOTAL        ACCESS:    2699625 HIT:     117027 MISS:    2582598 MSHR_MERGE:          0
cpu0->cpu0_L2C LOAD         ACCESS:    2598466 HIT:      19800 MISS:    2578666 MSHR_MERGE:          0
cpu0->cpu0_L2C RFO          ACCESS:       1567 HIT:       1382 MISS:        185 MSHR_MERGE:          0
cpu0->cpu0_L2C PREFETCH     ACCESS:          0 HIT:          0 MISS:          0 MSHR_MERGE:          0
cpu0->cpu0_L2C WRITE        ACCESS:      96203 HIT:      95346 MISS:        857 MSHR_MERGE:          0
cpu0->cpu0_L2C TRANSLATION  ACCESS:       3389 HIT:        499 MISS:       2890 MSHR_MERGE:          0
cpu0->cpu0_L2C PREFETCH REQUESTED:          0 ISSUED:          0 USEFUL:          0 USELESS:          0
cpu0->cpu0_L2C AVERAGE MISS LATENCY: 130.2 cycles
cpu0->cpu0_L1I TOTAL        ACCESS:    9737119 HIT:    9737119 MISS:          0 MSHR_MERGE:          0
cpu0->cpu0_L1I LOAD         ACCESS:    9737119 HIT:    9737119 MISS:          0 MSHR_MERGE:          0
cpu0->cpu0_L1I RFO          ACCESS:          0 HIT:          0 MISS:          0 MSHR_MERGE:          0
cpu0->cpu0_L1I PREFETCH     ACCESS:          0 HIT:          0 MISS:          0 MSHR_MERGE:          0
cpu0->cpu0_L1I WRITE        ACCESS:          0 HIT:          0 MISS:          0 MSHR_MERGE:          0
cpu0->cpu0_L1I TRANSLATION  ACCESS:          0 HIT:          0 MISS:          0 MSHR_MERGE:          0
cpu0->cpu0_L1I PREFETCH REQUESTED:          0 ISSUED:          0 USEFUL:          0 USELESS:          0
cpu0->cpu0_L1I AVERAGE MISS LATENCY: - cycles
cpu0->cpu0_L1D TOTAL        ACCESS:   16506722 HIT:   13768292 MISS:    2738430 MSHR_MERGE:     134984
cpu0->cpu0_L1D LOAD         ACCESS:    8630417 HIT:    5899208 MISS:    2731209 MSHR_MERGE:     132719
cpu0->cpu0_L1D RFO          ACCESS:          0 HIT:          0 MISS:          0 MSHR_MERGE:          0
cpu0->cpu0_L1D PREFETCH     ACCESS:          0 HIT:          0 MISS:          0 MSHR_MERGE:          0
cpu0->cpu0_L1D WRITE        ACCESS:    7872598 HIT:    7868766 MISS:       3832 MSHR_MERGE:       2265
cpu0->cpu0_L1D TRANSLATION  ACCESS:       3707 HIT:        318 MISS:       3389 MSHR_MERGE:          0
cpu0->cpu0_L1D PREFETCH REQUESTED:          0 ISSUED:          0 USEFUL:          0 USELESS:          0
cpu0->cpu0_L1D AVERAGE MISS LATENCY: 138.1 cycles
cpu0->cpu0_ITLB TOTAL        ACCESS:    8581118 HIT:    8581118 MISS:          0 MSHR_MERGE:          0
cpu0->cpu0_ITLB LOAD         ACCESS:    8581118 HIT:    8581118 MISS:          0 MSHR_MERGE:          0
cpu0->cpu0_ITLB RFO          ACCESS:          0 HIT:          0 MISS:          0 MSHR_MERGE:          0
cpu0->cpu0_ITLB PREFETCH     ACCESS:          0 HIT:          0 MISS:          0 MSHR_MERGE:          0
cpu0->cpu0_ITLB WRITE        ACCESS:          0 HIT:          0 MISS:          0 MSHR_MERGE:          0
cpu0->cpu0_ITLB TRANSLATION  ACCESS:          0 HIT:          0 MISS:          0 MSHR_MERGE:          0
cpu0->cpu0_ITLB PREFETCH REQUESTED:          0 ISSUED:          0 USEFUL:          0 USELESS:          0
cpu0->cpu0_ITLB AVERAGE MISS LATENCY: - cycles
cpu0->cpu0_DTLB TOTAL        ACCESS:   14988353 HIT:   14914610 MISS:      73743 MSHR_MERGE:      15704
cpu0->cpu0_DTLB LOAD         ACCESS:   14988353 HIT:   14914610 MISS:      73743 MSHR_MERGE:      15704
cpu0->cpu0_DTLB RFO          ACCESS:          0 HIT:          0 MISS:          0 MSHR_MERGE:          0
cpu0->cpu0_DTLB PREFETCH     ACCESS:          0 HIT:          0 MISS:          0 MSHR_MERGE:          0
cpu0->cpu0_DTLB WRITE        ACCESS:          0 HIT:          0 MISS:          0 MSHR_MERGE:          0
cpu0->cpu0_DTLB TRANSLATION  ACCESS:          0 HIT:          0 MISS:          0 MSHR_MERGE:          0
cpu0->cpu0_DTLB PREFETCH REQUESTED:          0 ISSUED:          0 USEFUL:          0 USELESS:          0
cpu0->cpu0_DTLB AVERAGE MISS LATENCY: 25.86 cycles
cpu0->LLC TOTAL        ACCESS:    2662275 HIT:     715788 MISS:    1946487 MSHR_MERGE:          0
cpu0->LLC LOAD         ACCESS:    2578666 HIT:     694129 MISS:    1884537 MSHR_MERGE:          0
cpu0->LLC RFO          ACCESS:        185 HIT:        141 MISS:         44 MSHR_MERGE:          0
cpu0->LLC PREFETCH     ACCESS:          0 HIT:          0 MISS:          0 MSHR_MERGE:          0
cpu0->LLC WRITE        ACCESS:      80534 HIT:      21509 MISS:      59025 MSHR_MERGE:          0
cpu0->LLC TRANSLATION  ACCESS:       2890 HIT:          9 MISS:       2881 MSHR_MERGE:          0
cpu0->LLC PREFETCH REQUESTED:          0 ISSUED:          0 USEFUL:          0 USELESS:          0
cpu0->LLC AVERAGE MISS LATENCY: 150.8 cycles

DRAM Statistics

Channel 0 RQ ROW_BUFFER_HIT:     141728
  ROW_BUFFER_MISS:    1745652
  AVG DBUS CONGESTED CYCLE: 19.41
Channel 0 WQ ROW_BUFFER_HIT:      18121
  ROW_BUFFER_MISS:      58007
  FULL:          0
Channel 0 REFRESHES ISSUED:      15979
