[VMEM] WARNING: physical memory size is smaller than virtual memory size.
WARNING: option --warmup_instructions is deprecated. Use --warmup-instructions instead.
WARNING: option --simulation_instructions is deprecated. Use --simulation-instructions instead.

*** ChampSim Multicore Out-of-Order Simulator ***
Warmup Instructions: 20000000
Simulation Instructions: 50000000
Number of CPUs: 1
Page size: 8192

Off-chip DRAM Size: 16 GiB Channels: 1 Width: 64-bit Data Rate: 3205 MT/s
Heartbeat CPU 0 instructions: 10000001 cycles: 4634106 heartbeat IPC: 2.158 cumulative IPC: 2.158 (Simulation time: 00 hr 00 min 49 sec)
Heartbeat CPU 0 instructions: 20000002 cycles: 9214241 heartbeat IPC: 2.183 cumulative IPC: 2.171 (Simulation time: 00 hr 01 min 39 sec)
Warmup finished CPU 0 instructions: 20000002 cycles: 9214241 cumulative IPC: 2.171 (Simulation time: 00 hr 01 min 39 sec)
Warmup complete CPU 0 instructions: 20000002 cycles: 9214241 cumulative IPC: 2.171 (Simulation time: 00 hr 01 min 39 sec)
Heartbeat CPU 0 instructions: 30000005 cycles: 38530913 heartbeat IPC: 0.3411 cumulative IPC: 0.3411 (Simulation time: 00 hr 03 min 43 sec)
Heartbeat CPU 0 instructions: 40000005 cycles: 67585892 heartbeat IPC: 0.3442 cumulative IPC: 0.3426 (Simulation time: 00 hr 05 min 45 sec)
Heartbeat CPU 0 instructions: 50000007 cycles: 96918304 heartbeat IPC: 0.3409 cumulative IPC: 0.3421 (Simulation time: 00 hr 07 min 49 sec)
Heartbeat CPU 0 instructions: 60000007 cycles: 125975230 heartbeat IPC: 0.3442 cumulative IPC: 0.3426 (Simulation time: 00 hr 09 min 50 sec)
Simulation finished CPU 0 instructions: 50000002 cycles: 146216227 cumulative IPC: 0.342 (Simulation time: 00 hr 11 min 52 sec)
Simulation complete CPU 0 instructions: 50000002 cycles: 146216227 cumulative IPC: 0.342 (Simulation time: 00 hr 11 min 52 sec)

ChampSim completed all CPUs

=== Simulation ===
CPU 0 runs traces/605.mcf_s-1152B.champsimtrace.xz

Region of Interest Statistics

CPU 0 cumulative IPC: 0.342 instructions: 50000002 cycles: 146216227
CPU 0 Branch Prediction Accuracy: 90.19% MPKI: 24.48 Average ROB Occupancy at Mispredict: 21.43
Branch type MPKI
BRANCH_DIRECT_JUMP: 0.2057
BRANCH_INDIRECT: 0
BRANCH_CONDITIONAL: 24.27
BRANCH_DIRECT_CALL: 0
BRANCH_INDIRECT_CALL: 0.0036
BRANCH_RETURN: 2e-05

cpu0->cpu0_STLB TOTAL        ACCESS:    1006295 HIT:    1000538 MISS:       5757 MSHR_MERGE:          0
cpu0->cpu0_STLB LOAD         ACCESS:    1006295 HIT:    1000538 MISS:       5757 MSHR_MERGE:          0
cpu0->cpu0_STLB RFO          ACCESS:          0 HIT:          0 MISS:          0 MSHR_MERGE:          0
cpu0->cpu0_STLB PREFETCH     ACCESS:          0 HIT:          0 MISS:          0 MSHR_MERGE:          0
cpu0->cpu0_STLB WRITE        ACCESS:          0 HIT:          0 MISS:          0 MSHR_MERGE:          0
cpu0->cpu0_STLB TRANSLATION  ACCESS:          0 HIT:          0 MISS:          0 MSHR_MERGE:          0
cpu0->cpu0_STLB PREFETCH REQUESTED:          0 ISSUED:          0 USEFUL:          0 USELESS:          0
cpu0->cpu0_STLB AVERAGE MISS LATENCY: 622.2 cycles
cpu0->cpu0_L2C TOTAL        ACCESS:    5437261 HIT:    1665324 MISS:    3771937 MSHR_MERGE:     185305
cpu0->cpu0_L2C LOAD         ACCESS:    2552735 HIT:     978810 MISS:    1573925 MSHR_MERGE:     128109
cpu0->cpu0_L2C RFO          ACCESS:     187384 HIT:      37792 MISS:     149592 MSHR_MERGE:          0
cpu0->cpu0_L2C PREFETCH     ACCESS:    2423012 HIT:     382134 MISS:    2040878 MSHR_MERGE:      57196
cpu0->cpu0_L2C WRITE        ACCESS:     265778 HIT:     265107 MISS:        671 MSHR_MERGE:          0
cpu0->cpu0_L2C TRANSLATION  ACCESS:       8352 HIT:       1481 MISS:       6871 MSHR_MERGE:          0
cpu0->cpu0_L2C PREFETCH REQUESTED:    2423013 ISSUED:    2423013 USEFUL:     748910 USELESS:    1234901
cpu0->cpu0_L2C AVERAGE MISS LATENCY: 55.75 cycles
cpu0->cpu0_L1I TOTAL        ACCESS:     434162 HIT:     434162 MISS:          0 MSHR_MERGE:          0
cpu0->cpu0_L1I LOAD         ACCESS:     434162 HIT:     434162 MISS:          0 MSHR_MERGE:          0
cpu0->cpu0_L1I RFO          ACCESS:          0 HIT:          0 MISS:          0 MSHR_MERGE:          0
cpu0->cpu0_L1I PREFETCH     ACCESS:          0 HIT:          0 MISS:          0 MSHR_MERGE:          0
cpu0->cpu0_L1I WRITE        ACCESS:          0 HIT:          0 MISS:          0 MSHR_MERGE:          0
cpu0->cpu0_L1I TRANSLATION  ACCESS:          0 HIT:          0 MISS:          0 MSHR_MERGE:          0
cpu0->cpu0_L1I PREFETCH REQUESTED:          0 ISSUED:          0 USEFUL:          0 USELESS:          0
cpu0->cpu0_L1I AVERAGE MISS LATENCY: - cycles
cpu0->cpu0_L1D TOTAL        ACCESS:   17984309 HIT:   14385517 MISS:    3598792 MSHR_MERGE:     850317
cpu0->cpu0_L1D LOAD         ACCESS:   12808379 HIT:    9717467 MISS:    3090912 MSHR_MERGE:     538176
cpu0->cpu0_L1D RFO          ACCESS:          0 HIT:          0 MISS:          0 MSHR_MERGE:          0
cpu0->cpu0_L1D PREFETCH     ACCESS:          0 HIT:          0 MISS:          0 MSHR_MERGE:          0
cpu0->cpu0_L1D WRITE        ACCESS:    5164320 HIT:    4664792 MISS:     499528 MSHR_MERGE:     312141
cpu0->cpu0_L1D TRANSLATION  ACCESS:      11610 HIT:       3258 MISS:       8352 MSHR_MERGE:          0
cpu0->cpu0_L1D PREFETCH REQUESTED:          0 ISSUED:          0 USEFUL:          0 USELESS:          0
cpu0->cpu0_L1D AVERAGE MISS LATENCY: 44.28 cycles
cpu0->cpu0_ITLB TOTAL        ACCESS:     402583 HIT:     402583 MISS:          0 MSHR_MERGE:          0
cpu0->cpu0_ITLB LOAD         ACCESS:     402583 HIT:     402583 MISS:          0 MSHR_MERGE:          0
cpu0->cpu0_ITLB RFO          ACCESS:          0 HIT:          0 MISS:          0 MSHR_MERGE:          0
cpu0->cpu0_ITLB PREFETCH     ACCESS:          0 HIT:          0 MISS:          0 MSHR_MERGE:          0
cpu0->cpu0_ITLB WRITE        ACCESS:          0 HIT:          0 MISS:          0 MSHR_MERGE:          0
cpu0->cpu0_ITLB TRANSLATION  ACCESS:          0 HIT:          0 MISS:          0 MSHR_MERGE:          0
cpu0->cpu0_ITLB PREFETCH REQUESTED:          0 ISSUED:          0 USEFUL:          0 USELESS:          0
cpu0->cpu0_ITLB AVERAGE MISS LATENCY: - cycles
cpu0->cpu0_DTLB TOTAL        ACCESS:   16845631 HIT:   15653596 MISS:    1192035 MSHR_MERGE:     185740
cpu0->cpu0_DTLB LOAD         ACCESS:   16845631 HIT:   15653596 MISS:    1192035 MSHR_MERGE:     185740
cpu0->cpu0_DTLB RFO          ACCESS:          0 HIT:          0 MISS:          0 MSHR_MERGE:          0
cpu0->cpu0_DTLB PREFETCH     ACCESS:          0 HIT:          0 MISS:          0 MSHR_MERGE:          0
cpu0->cpu0_DTLB WRITE        ACCESS:          0 HIT:          0 MISS:          0 MSHR_MERGE:          0
cpu0->cpu0_DTLB TRANSLATION  ACCESS:          0 HIT:          0 MISS:          0 MSHR_MERGE:          0
cpu0->cpu0_DTLB PREFETCH REQUESTED:          0 ISSUED:          0 USEFUL:          0 USELESS:          0
cpu0->cpu0_DTLB AVERAGE MISS LATENCY: 7.565 cycles
cpu0->LLC TOTAL        ACCESS:    3798545 HIT:    2244289 MISS:    1554256 MSHR_MERGE:          0
cpu0->LLC LOAD         ACCESS:    1445815 HIT:    1053533 MISS:     392282 MSHR_MERGE:          0
cpu0->LLC RFO          ACCESS:     149592 HIT:     141965 MISS:       7627 MSHR_MERGE:          0
cpu0->LLC PREFETCH     ACCESS:    1983682 HIT:     845766 MISS:    1137916 MSHR_MERGE:          0
cpu0->LLC WRITE        ACCESS:     212585 HIT:     202996 MISS:       9589 MSHR_MERGE:          0
cpu0->LLC TRANSLATION  ACCESS:       6871 HIT:         29 MISS:       6842 MSHR_MERGE:          0
cpu0->LLC PREFETCH REQUESTED:          0 ISSUED:          0 USEFUL:          0 USELESS:          0
cpu0->LLC AVERAGE MISS LATENCY: 142.5 cycles

DRAM Statistics

Channel 0 RQ ROW_BUFFER_HIT:     162827
  ROW_BUFFER_MISS:    1381782
  AVG DBUS CONGESTED CYCLE: 23.3
Channel 0 WQ ROW_BUFFER_HIT:       3501
  ROW_BUFFER_MISS:      11659
  FULL:          0
Channel 0 REFRESHES ISSUED:      12185
