[VMEM] WARNING: physical memory size is smaller than virtual memory size.
WARNING: option --warmup_instructions is deprecated. Use --warmup-instructions instead.
WARNING: option --simulation_instructions is deprecated. Use --simulation-instructions instead.

*** ChampSim Multicore Out-of-Order Simulator ***
Warmup Instructions: 20000000
Simulation Instructions: 50000000
Number of CPUs: 1
Page size: 8192

Off-chip DRAM Size: 16 GiB Channels: 1 Width: 64-bit Data Rate: 3205 MT/s
Heartbeat CPU 0 instructions: 10000000 cycles: 5197995 heartbeat IPC: 1.924 cumulative IPC: 1.924 (Simulation time: 00 hr 00 min 55 sec)
Heartbeat CPU 0 instructions: 20000000 cycles: 10387761 heartbeat IPC: 1.927 cumulative IPC: 1.925 (Simulation time: 00 hr 01 min 51 sec)
Warmup finished CPU 0 instructions: 20000000 cycles: 10387761 cumulative IPC: 1.925 (Simulation time: 00 hr 01 min 51 sec)
Warmup complete CPU 0 instructions: 20000000 cycles: 10387761 cumulative IPC: 1.925 (Simulation time: 00 hr 01 min 51 sec)
Heartbeat CPU 0 instructions: 30000000 cycles: 22139129 heartbeat IPC: 0.851 cumulative IPC: 0.851 (Simulation time: 00 hr 03 min 51 sec)
Heartbeat CPU 0 instructions: 40000000 cycles: 33918831 heartbeat IPC: 0.8489 cumulative IPC: 0.8499 (Simulation time: 00 hr 05 min 47 sec)
Heartbeat CPU 0 instructions: 50000000 cycles: 45636983 heartbeat IPC: 0.8534 cumulative IPC: 0.8511 (Simulation time: 00 hr 07 min 49 sec)
Heartbeat CPU 0 instructions: 60000000 cycles: 57425473 heartbeat IPC: 0.8483 cumulative IPC: 0.8504 (Simulation time: 00 hr 09 min 53 sec)
Heartbeat CPU 0 instructions: 70000000 cycles: 69187037 heartbeat IPC: 0.8502 cumulative IPC: 0.8504 (Simulation time: 00 hr 11 min 50 sec)
Simulation finished CPU 0 instructions: 50000000 cycles: 58799276 cumulative IPC: 0.8504 (Simulation time: 00 hr 11 min 50 sec)
Simulation complete CPU 0 instructions: 50000000 cycles: 58799276 cumulative IPC: 0.8504 (Simulation time: 00 hr 11 min 50 sec)

ChampSim completed all CPUs

=== Simulation ===
CPU 0 runs traces/470.lbm-1274B.champsimtrace.xz

Region of Interest Statistics

CPU 0 cumulative IPC: 0.8504 instructions: 50000000 cycles: 58799276
CPU 0 Branch Prediction Accuracy: 99.79% MPKI: 0.02864 Average ROB Occupancy at Mispredict: 189.8
Branch type MPKI
BRANCH_DIRECT_JUMP: 0
BRANCH_INDIRECT: 0
BRANCH_CONDITIONAL: 0.02864
BRANCH_DIRECT_CALL: 0
BRANCH_INDIRECT_CALL: 0
BRANCH_RETURN: 0

cpu0->cpu0_STLB TOTAL        ACCESS:      11115 HIT:       5557 MISS:       5558 MSHR_MERGE:          0
cpu0->cpu0_STLB LOAD         ACCESS:      11115 HIT:       5557 MISS:       5558 MSHR_MERGE:          0
cpu0->cpu0_STLB RFO          ACCESS:          0 HIT:          0 MISS:          0 MSHR_MERGE:          0
cpu0->cpu0_STLB PREFETCH     ACCESS:          0 HIT:          0 MISS:          0 MSHR_MERGE:          0
cpu0->cpu0_STLB WRITE        ACCESS:          0 HIT:          0 MISS:          0 MSHR_MERGE:          0
cpu0->cpu0_STLB TRANSLATION  ACCESS:          0 HIT:          0 MISS:          0 MSHR_MERGE:          0
cpu0->cpu0_STLB PREFETCH REQUESTED:          0 ISSUED:          0 USEFUL:          0 USELESS:          0
cpu0->cpu0_STLB AVERAGE MISS LATENCY: 1168 cycles
cpu0->cpu0_L2C TOTAL        ACCESS:    4918144 HIT:    3386564 MISS:    1531580 MSHR_MERGE:      73374
cpu0->cpu0_L2C LOAD         ACCESS:     355730 HIT:     274994 MISS:      80736 MSHR_MERGE:      39493
cpu0->cpu0_L2C RFO          ACCESS:    2002680 HIT:     924697 MISS:    1077983 MSHR_MERGE:          0
cpu0->cpu0_L2C PREFETCH     ACCESS:     545870 HIT:     181708 MISS:     364162 MSHR_MERGE:      33881
cpu0->cpu0_L2C WRITE        ACCESS:    2002736 HIT:    2002721 MISS:         15 MSHR_MERGE:          0
cpu0->cpu0_L2C TRANSLATION  ACCESS:      11128 HIT:       2444 MISS:       8684 MSHR_MERGE:          0
cpu0->cpu0_L2C PREFETCH REQUESTED:     545870 ISSUED:     545870 USEFUL:     314487 USELESS:      15870
cpu0->cpu0_L2C AVERAGE MISS LATENCY: 437.9 cycles
cpu0->cpu0_L1I TOTAL        ACCESS:   14540606 HIT:   14540606 MISS:          0 MSHR_MERGE:          0
cpu0->cpu0_L1I LOAD         ACCESS:   14540606 HIT:   14540606 MISS:          0 MSHR_MERGE:          0
cpu0->cpu0_L1I RFO          ACCESS:          0 HIT:          0 MISS:          0 MSHR_MERGE:          0
cpu0->cpu0_L1I PREFETCH     ACCESS:          0 HIT:          0 MISS:          0 MSHR_MERGE:          0
cpu0->cpu0_L1I WRITE        ACCESS:          0 HIT:          0 MISS:          0 MSHR_MERGE:          0
cpu0->cpu0_L1I TRANSLATION  ACCESS:          0 HIT:          0 MISS:          0 MSHR_MERGE:          0
cpu0->cpu0_L1I PREFETCH REQUESTED:          0 ISSUED:          0 USEFUL:          0 USELESS:          0
cpu0->cpu0_L1I AVERAGE MISS LATENCY: - cycles
cpu0->cpu0_L1D TOTAL        ACCESS:    8107758 HIT:    5640576 MISS:    2467182 MSHR_MERGE:      97581
cpu0->cpu0_L1D LOAD         ACCESS:    3073111 HIT:    2663575 MISS:     409536 MSHR_MERGE:      53806
cpu0->cpu0_L1D RFO          ACCESS:          0 HIT:          0 MISS:          0 MSHR_MERGE:          0
cpu0->cpu0_L1D PREFETCH     ACCESS:          0 HIT:          0 MISS:          0 MSHR_MERGE:          0
cpu0->cpu0_L1D WRITE        ACCESS:    5023519 HIT:    2977001 MISS:    2046518 MSHR_MERGE:      43775
cpu0->cpu0_L1D TRANSLATION  ACCESS:      11128 HIT:          0 MISS:      11128 MSHR_MERGE:          0
cpu0->cpu0_L1D PREFETCH REQUESTED:          0 ISSUED:          0 USEFUL:          0 USELESS:          0
cpu0->cpu0_L1D AVERAGE MISS LATENCY: 242.3 cycles
cpu0->cpu0_ITLB TOTAL        ACCESS:   12763839 HIT:   12763839 MISS:          0 MSHR_MERGE:          0
cpu0->cpu0_ITLB LOAD         ACCESS:   12763839 HIT:   12763839 MISS:          0 MSHR_MERGE:          0
cpu0->cpu0_ITLB RFO          ACCESS:          0 HIT:          0 MISS:          0 MSHR_MERGE:          0
cpu0->cpu0_ITLB PREFETCH     ACCESS:          0 HIT:          0 MISS:          0 MSHR_MERGE:          0
cpu0->cpu0_ITLB WRITE        ACCESS:          0 HIT:          0 MISS:          0 MSHR_MERGE:          0
cpu0->cpu0_ITLB TRANSLATION  ACCESS:          0 HIT:          0 MISS:          0 MSHR_MERGE:          0
cpu0->cpu0_ITLB PREFETCH REQUESTED:          0 ISSUED:          0 USEFUL:          0 USELESS:          0
cpu0->cpu0_ITLB AVERAGE MISS LATENCY: - cycles
cpu0->cpu0_DTLB TOTAL        ACCESS:    7908779 HIT:    7884006 MISS:      24773 MSHR_MERGE:      13658
cpu0->cpu0_DTLB LOAD         ACCESS:    7908779 HIT:    7884006 MISS:      24773 MSHR_MERGE:      13658
cpu0->cpu0_DTLB RFO          ACCESS:          0 HIT:          0 MISS:          0 MSHR_MERGE:          0
cpu0->cpu0_DTLB PREFETCH     ACCESS:          0 HIT:          0 MISS:          0 MSHR_MERGE:          0
cpu0->cpu0_DTLB WRITE        ACCESS:          0 HIT:          0 MISS:          0 MSHR_MERGE:          0
cpu0->cpu0_DTLB TRANSLATION  ACCESS:          0 HIT:          0 MISS:          0 MSHR_MERGE:          0
cpu0->cpu0_DTLB PREFETCH REQUESTED:          0 ISSUED:          0 USEFUL:          0 USELESS:          0
cpu0->cpu0_DTLB AVERAGE MISS LATENCY: 588.7 cycles
cpu0->LLC TOTAL        ACCESS:    2536420 HIT:      71614 MISS:    2464806 MSHR_MERGE:          0
cpu0->LLC LOAD         ACCESS:      41243 HIT:          0 MISS:      41243 MSHR_MERGE:          0
cpu0->LLC RFO          ACCESS:    1077981 HIT:      21571 MISS:    1056410 MSHR_MERGE:          0
cpu0->LLC PREFETCH     ACCESS:     330281 HIT:          0 MISS:     330281 MSHR_MERGE:          0
cpu0->LLC WRITE        ACCESS:    1078231 HIT:      50043 MISS:    1028188 MSHR_MERGE:          0
cpu0->LLC TRANSLATION  ACCESS:       8684 HIT:          0 MISS:       8684 MSHR_MERGE:          0
cpu0->LLC PREFETCH REQUESTED:          0 ISSUED:          0 USEFUL:          0 USELESS:          0
cpu0->LLC AVERAGE MISS LATENCY: 230.4 cycles

DRAM Statistics

Channel 0 RQ ROW_BUFFER_HIT:      35416
  ROW_BUFFER_MISS:    1401087
  AVG DBUS CONGESTED CYCLE: 11.78
Channel 0 WQ ROW_BUFFER_HIT:     153462
  ROW_BUFFER_MISS:     899609
  FULL:          0
Channel 0 REFRESHES ISSUED:       4900
