[VMEM] WARNING: physical memory size is smaller than virtual memory size.
WARNING: option --warmup_instructions is deprecated. Use --warmup-instructions instead.
WARNING: option --simulation_instructions is deprecated. Use --simulation-instructions instead.

*** ChampSim Multicore Out-of-Order Simulator ***
Warmup Instructions: 20000000
Simulation Instructions: 50000000
Number of CPUs: 1
Page size: 8192

Off-chip DRAM Size: 64 GiB Channels: 4 Width: 64-bit Data Rate: 3205 MT/s
Heartbeat CPU 0 instructions: 10000000 cycles: 2973041 heartbeat IPC: 3.364 cumulative IPC: 3.364 (Simulation time: 00 hr 01 min 26 sec)
Heartbeat CPU 0 instructions: 20000000 cycles: 5933793 heartbeat IPC: 3.378 cumulative IPC: 3.371 (Simulation time: 00 hr 02 min 52 sec)
Warmup finished CPU 0 instructions: 20000000 cycles: 5933793 cumulative IPC: 3.371 (Simulation time: 00 hr 02 min 52 sec)
Warmup complete CPU 0 instructions: 20000000 cycles: 5933793 cumulative IPC: 3.371 (Simulation time: 00 hr 02 min 52 sec)
Heartbeat CPU 0 instructions: 30000002 cycles: 14318975 heartbeat IPC: 1.193 cumulative IPC: 1.193 (Simulation time: 00 hr 06 min 04 sec)
Heartbeat CPU 0 instructions: 40000005 cycles: 22694153 heartbeat IPC: 1.194 cumulative IPC: 1.193 (Simulation time: 00 hr 09 min 09 sec)
Heartbeat CPU 0 instructions: 50000005 cycles: 31083288 heartbeat IPC: 1.192 cumulative IPC: 1.193 (Simulation time: 00 hr 12 min 15 sec)
Heartbeat CPU 0 instructions: 60000008 cycles: 39455860 heartbeat IPC: 1.194 cumulative IPC: 1.193 (Simulation time: 00 hr 15 min 18 sec)
Simulation finished CPU 0 instructions: 50000000 cycles: 41898149 cumulative IPC: 1.193 (Simulation time: 00 hr 18 min 21 sec)
Simulation complete CPU 0 instructions: 50000000 cycles: 41898149 cumulative IPC: 1.193 (Simulation time: 00 hr 18 min 21 sec)

ChampSim completed all CPUs

=== Simulation ===
CPU 0 runs traces/A2/470.lbm-1274B.champsimtrace.xz

Region of Interest Statistics

CPU 0 cumulative IPC: 1.193 instructions: 50000000 cycles: 41898149
CPU 0 Branch Prediction Accuracy: 99.79% MPKI: 0.02864 Average ROB Occupancy at Mispredict: 189.9
Branch type MPKI
BRANCH_DIRECT_JUMP: 0
BRANCH_INDIRECT: 0
BRANCH_CONDITIONAL: 0.02864
BRANCH_DIRECT_CALL: 0
BRANCH_INDIRECT_CALL: 0
BRANCH_RETURN: 0

cpu0->cpu0_STLB TOTAL        ACCESS:      11115 HIT:       5557 MISS:       5558 MSHR_MERGE:          0
cpu0->cpu0_STLB LOAD         ACCESS:      11115 HIT:       5557 MISS:       5558 MSHR_MERGE:          0
cpu0->cpu0_STLB RFO          ACCESS:          0 HIT:          0 MISS:          0 MSHR_MERGE:          0
cpu0->cpu0_STLB PREFETCH     ACCESS:          0 HIT:          0 MISS:          0 MSHR_MERGE:          0
cpu0->cpu0_STLB WRITE        ACCESS:          0 HIT:          0 MISS:          0 MSHR_MERGE:          0
cpu0->cpu0_STLB TRANSLATION  ACCESS:          0 HIT:          0 MISS:          0 MSHR_MERGE:          0
cpu0->cpu0_STLB PREFETCH REQUESTED:          0 ISSUED:          0 USEFUL:          0 USELESS:          0
cpu0->cpu0_STLB AVERAGE MISS LATENCY: 711.2 cycles
cpu0->cpu0_L2C TOTAL        ACCESS:    4766890 HIT:    3095135 MISS:    1671755 MSHR_MERGE:         90
cpu0->cpu0_L2C LOAD         ACCESS:     355730 HIT:      58821 MISS:     296909 MSHR_MERGE:          2
cpu0->cpu0_L2C RFO          ACCESS:    2002750 HIT:     926598 MISS:    1076152 MSHR_MERGE:          0
cpu0->cpu0_L2C PREFETCH     ACCESS:     394514 HIT:     104519 MISS:     289995 MSHR_MERGE:         88
cpu0->cpu0_L2C WRITE        ACCESS:    2002768 HIT:    2002753 MISS:         15 MSHR_MERGE:          0
cpu0->cpu0_L2C TRANSLATION  ACCESS:      11128 HIT:       2444 MISS:       8684 MSHR_MERGE:          0
cpu0->cpu0_L2C PREFETCH REQUESTED:     394514 ISSUED:     394514 USEFUL:      58823 USELESS:          0
cpu0->cpu0_L2C AVERAGE MISS LATENCY: 166.1 cycles
cpu0->cpu0_L1I TOTAL        ACCESS:    8388045 HIT:    8388045 MISS:          0 MSHR_MERGE:          0
cpu0->cpu0_L1I LOAD         ACCESS:    8388045 HIT:    8388045 MISS:          0 MSHR_MERGE:          0
cpu0->cpu0_L1I RFO          ACCESS:          0 HIT:          0 MISS:          0 MSHR_MERGE:          0
cpu0->cpu0_L1I PREFETCH     ACCESS:          0 HIT:          0 MISS:          0 MSHR_MERGE:          0
cpu0->cpu0_L1I WRITE        ACCESS:          0 HIT:          0 MISS:          0 MSHR_MERGE:          0
cpu0->cpu0_L1I TRANSLATION  ACCESS:          0 HIT:          0 MISS:          0 MSHR_MERGE:          0
cpu0->cpu0_L1I PREFETCH REQUESTED:          0 ISSUED:          0 USEFUL:          0 USELESS:          0
cpu0->cpu0_L1I AVERAGE MISS LATENCY: - cycles
cpu0->cpu0_L1D TOTAL        ACCESS:    7348747 HIT:    4789009 MISS:    2559738 MSHR_MERGE:     190115
cpu0->cpu0_L1D LOAD         ACCESS:    2314100 HIT:    1791055 MISS:     523045 MSHR_MERGE:     167315
cpu0->cpu0_L1D RFO          ACCESS:          0 HIT:          0 MISS:          0 MSHR_MERGE:          0
cpu0->cpu0_L1D PREFETCH     ACCESS:          0 HIT:          0 MISS:          0 MSHR_MERGE:          0
cpu0->cpu0_L1D WRITE        ACCESS:    5023519 HIT:    2997954 MISS:    2025565 MSHR_MERGE:      22800
cpu0->cpu0_L1D TRANSLATION  ACCESS:      11128 HIT:          0 MISS:      11128 MSHR_MERGE:          0
cpu0->cpu0_L1D PREFETCH REQUESTED:          0 ISSUED:          0 USEFUL:          0 USELESS:          0
cpu0->cpu0_L1D AVERAGE MISS LATENCY: 105.7 cycles
cpu0->cpu0_ITLB TOTAL        ACCESS:    6811966 HIT:    6811966 MISS:          0 MSHR_MERGE:          0
cpu0->cpu0_ITLB LOAD         ACCESS:    6811966 HIT:    6811966 MISS:          0 MSHR_MERGE:          0
cpu0->cpu0_ITLB RFO          ACCESS:          0 HIT:          0 MISS:          0 MSHR_MERGE:          0
cpu0->cpu0_ITLB PREFETCH     ACCESS:          0 HIT:          0 MISS:          0 MSHR_MERGE:          0
cpu0->cpu0_ITLB WRITE        ACCESS:          0 HIT:          0 MISS:          0 MSHR_MERGE:          0
cpu0->cpu0_ITLB TRANSLATION  ACCESS:          0 HIT:          0 MISS:          0 MSHR_MERGE:          0
cpu0->cpu0_ITLB PREFETCH REQUESTED:          0 ISSUED:          0 USEFUL:          0 USELESS:          0
cpu0->cpu0_ITLB AVERAGE MISS LATENCY: - cycles
cpu0->cpu0_DTLB TOTAL        ACCESS:    6812768 HIT:    6790059 MISS:      22709 MSHR_MERGE:      11594
cpu0->cpu0_DTLB LOAD         ACCESS:    6812768 HIT:    6790059 MISS:      22709 MSHR_MERGE:      11594
cpu0->cpu0_DTLB RFO          ACCESS:          0 HIT:          0 MISS:          0 MSHR_MERGE:          0
cpu0->cpu0_DTLB PREFETCH     ACCESS:          0 HIT:          0 MISS:          0 MSHR_MERGE:          0
cpu0->cpu0_DTLB WRITE        ACCESS:          0 HIT:          0 MISS:          0 MSHR_MERGE:          0
cpu0->cpu0_DTLB TRANSLATION  ACCESS:          0 HIT:          0 MISS:          0 MSHR_MERGE:          0
cpu0->cpu0_DTLB PREFETCH REQUESTED:          0 ISSUED:          0 USEFUL:          0 USELESS:          0
cpu0->cpu0_DTLB AVERAGE MISS LATENCY: 360.2 cycles
cpu0->LLC TOTAL        ACCESS:    2747895 HIT:     290522 MISS:    2457373 MSHR_MERGE:        601
cpu0->LLC LOAD         ACCESS:     296907 HIT:     102870 MISS:     194037 MSHR_MERGE:         22
cpu0->LLC RFO          ACCESS:    1076152 HIT:      17361 MISS:    1058791 MSHR_MERGE:          0
cpu0->LLC PREFETCH     ACCESS:     289907 HIT:     127567 MISS:     162340 MSHR_MERGE:        579
cpu0->LLC WRITE        ACCESS:    1076245 HIT:      42724 MISS:    1033521 MSHR_MERGE:          0
cpu0->LLC TRANSLATION  ACCESS:       8684 HIT:          0 MISS:       8684 MSHR_MERGE:          0
cpu0->LLC PREFETCH REQUESTED:          0 ISSUED:          0 USEFUL:          0 USELESS:          0
cpu0->LLC AVERAGE MISS LATENCY: 93.8 cycles

DRAM Statistics

Channel 0 RQ ROW_BUFFER_HIT:         56
  ROW_BUFFER_MISS:     355743
  AVG DBUS CONGESTED CYCLE: 19.72
Channel 0 WQ ROW_BUFFER_HIT:      36845
  ROW_BUFFER_MISS:     232469
  FULL:          0
Channel 0 REFRESHES ISSUED:       3491

Channel 1 RQ ROW_BUFFER_HIT:         45
  ROW_BUFFER_MISS:     355673
  AVG DBUS CONGESTED CYCLE: 19.73
Channel 1 WQ ROW_BUFFER_HIT:      36748
  ROW_BUFFER_MISS:     232491
  FULL:          0
Channel 1 REFRESHES ISSUED:       3491

Channel 2 RQ ROW_BUFFER_HIT:         44
  ROW_BUFFER_MISS:     355772
  AVG DBUS CONGESTED CYCLE: 19.82
Channel 2 WQ ROW_BUFFER_HIT:      37167
  ROW_BUFFER_MISS:     232223
  FULL:          0
Channel 2 REFRESHES ISSUED:       3491

Channel 3 RQ ROW_BUFFER_HIT:         38
  ROW_BUFFER_MISS:     355730
  AVG DBUS CONGESTED CYCLE: 19.81
Channel 3 WQ ROW_BUFFER_HIT:      36858
  ROW_BUFFER_MISS:     232504
  FULL:          0
Channel 3 REFRESHES ISSUED:       3491
