[VMEM] WARNING: physical memory size is smaller than virtual memory size.
WARNING: option --warmup_instructions is deprecated. Use --warmup-instructions instead.
WARNING: option --simulation_instructions is deprecated. Use --simulation-instructions instead.

*** ChampSim Multicore Out-of-Order Simulator ***
Warmup Instructions: 20000000
Simulation Instructions: 50000000
Number of CPUs: 1
Page size: 8192

Off-chip DRAM Size: 16 GiB Channels: 1 Width: 64-bit Data Rate: 3205 MT/s
Heartbeat CPU 0 instructions: 10000000 cycles: 8292552 heartbeat IPC: 1.206 cumulative IPC: 1.206 (Simulation time: 00 hr 01 min 18 sec)
Heartbeat CPU 0 instructions: 20000000 cycles: 15332810 heartbeat IPC: 1.42 cumulative IPC: 1.304 (Simulation time: 00 hr 02 min 32 sec)
Warmup finished CPU 0 instructions: 20000000 cycles: 15332810 cumulative IPC: 1.304 (Simulation time: 00 hr 02 min 32 sec)
Warmup complete CPU 0 instructions: 20000000 cycles: 15332810 cumulative IPC: 1.304 (Simulation time: 00 hr 02 min 32 sec)
Heartbeat CPU 0 instructions: 30000002 cycles: 43677402 heartbeat IPC: 0.3528 cumulative IPC: 0.3528 (Simulation time: 00 hr 05 min 12 sec)
Heartbeat CPU 0 instructions: 40000004 cycles: 72134443 heartbeat IPC: 0.3514 cumulative IPC: 0.3521 (Simulation time: 00 hr 07 min 55 sec)
Heartbeat CPU 0 instructions: 50000004 cycles: 100647175 heartbeat IPC: 0.3507 cumulative IPC: 0.3516 (Simulation time: 00 hr 10 min 34 sec)
Heartbeat CPU 0 instructions: 60000007 cycles: 127609291 heartbeat IPC: 0.3709 cumulative IPC: 0.3563 (Simulation time: 00 hr 13 min 06 sec)
Simulation finished CPU 0 instructions: 50000001 cycles: 138555191 cumulative IPC: 0.3609 (Simulation time: 00 hr 15 min 34 sec)
Simulation complete CPU 0 instructions: 50000001 cycles: 138555191 cumulative IPC: 0.3609 (Simulation time: 00 hr 15 min 34 sec)

ChampSim completed all CPUs

=== Simulation ===
CPU 0 runs traces/620.omnetpp_s-874B.champsimtrace.xz

Region of Interest Statistics

CPU 0 cumulative IPC: 0.3609 instructions: 50000001 cycles: 138555191
CPU 0 Branch Prediction Accuracy: 96.16% MPKI: 7.99 Average ROB Occupancy at Mispredict: 58.69
Branch type MPKI
BRANCH_DIRECT_JUMP: 0.9384
BRANCH_INDIRECT: 0.1208
BRANCH_CONDITIONAL: 5.805
BRANCH_DIRECT_CALL: 0.00236
BRANCH_INDIRECT_CALL: 0.7298
BRANCH_RETURN: 0.3936

cpu0->cpu0_STLB TOTAL        ACCESS:     827932 HIT:     690838 MISS:     137094 MSHR_MERGE:          0
cpu0->cpu0_STLB LOAD         ACCESS:     827932 HIT:     690838 MISS:     137094 MSHR_MERGE:          0
cpu0->cpu0_STLB RFO          ACCESS:          0 HIT:          0 MISS:          0 MSHR_MERGE:          0
cpu0->cpu0_STLB PREFETCH     ACCESS:          0 HIT:          0 MISS:          0 MSHR_MERGE:          0
cpu0->cpu0_STLB WRITE        ACCESS:          0 HIT:          0 MISS:          0 MSHR_MERGE:          0
cpu0->cpu0_STLB TRANSLATION  ACCESS:          0 HIT:          0 MISS:          0 MSHR_MERGE:          0
cpu0->cpu0_STLB PREFETCH REQUESTED:          0 ISSUED:          0 USEFUL:          0 USELESS:          0
cpu0->cpu0_STLB AVERAGE MISS LATENCY: 341.3 cycles
cpu0->cpu0_L2C TOTAL        ACCESS:    3528716 HIT:    1550557 MISS:    1978159 MSHR_MERGE:     220346
cpu0->cpu0_L2C LOAD         ACCESS:     933834 HIT:     379358 MISS:     554476 MSHR_MERGE:      26440
cpu0->cpu0_L2C RFO          ACCESS:     139200 HIT:      68758 MISS:      70442 MSHR_MERGE:       2935
cpu0->cpu0_L2C PREFETCH     ACCESS:    1652580 HIT:     580236 MISS:    1072344 MSHR_MERGE:     190971
cpu0->cpu0_L2C WRITE        ACCESS:     509429 HIT:     505527 MISS:       3902 MSHR_MERGE:          0
cpu0->cpu0_L2C TRANSLATION  ACCESS:     293673 HIT:      16678 MISS:     276995 MSHR_MERGE:          0
cpu0->cpu0_L2C PREFETCH REQUESTED:    1654041 ISSUED:    1652580 USEFUL:     217949 USELESS:     661299
cpu0->cpu0_L2C AVERAGE MISS LATENCY: 138 cycles
cpu0->cpu0_L1I TOTAL        ACCESS:    7872978 HIT:    7847586 MISS:      25392 MSHR_MERGE:       6940
cpu0->cpu0_L1I LOAD         ACCESS:    7872978 HIT:    7847586 MISS:      25392 MSHR_MERGE:       6940
cpu0->cpu0_L1I RFO          ACCESS:          0 HIT:          0 MISS:          0 MSHR_MERGE:          0
cpu0->cpu0_L1I PREFETCH     ACCESS:          0 HIT:          0 MISS:          0 MSHR_MERGE:          0
cpu0->cpu0_L1I WRITE        ACCESS:          0 HIT:          0 MISS:          0 MSHR_MERGE:          0
cpu0->cpu0_L1I TRANSLATION  ACCESS:          0 HIT:          0 MISS:          0 MSHR_MERGE:          0
cpu0->cpu0_L1I PREFETCH REQUESTED:          0 ISSUED:          0 USEFUL:          0 USELESS:          0
cpu0->cpu0_L1I AVERAGE MISS LATENCY: 25.18 cycles
cpu0->cpu0_L1D TOTAL        ACCESS:   18753741 HIT:   17039101 MISS:    1714640 MSHR_MERGE:     366373
cpu0->cpu0_L1D LOAD         ACCESS:    9417371 HIT:    8320384 MISS:    1096987 MSHR_MERGE:     181603
cpu0->cpu0_L1D RFO          ACCESS:          0 HIT:          0 MISS:          0 MSHR_MERGE:          0
cpu0->cpu0_L1D PREFETCH     ACCESS:          0 HIT:          0 MISS:          0 MSHR_MERGE:          0
cpu0->cpu0_L1D WRITE        ACCESS:    9035105 HIT:    8711450 MISS:     323655 MSHR_MERGE:     184445
cpu0->cpu0_L1D TRANSLATION  ACCESS:     301265 HIT:       7267 MISS:     293998 MSHR_MERGE:        325
cpu0->cpu0_L1D PREFETCH REQUESTED:          0 ISSUED:          0 USEFUL:          0 USELESS:          0
cpu0->cpu0_L1D AVERAGE MISS LATENCY: 101.1 cycles
cpu0->cpu0_ITLB TOTAL        ACCESS:    7210008 HIT:    7209804 MISS:        204 MSHR_MERGE:        100
cpu0->cpu0_ITLB LOAD         ACCESS:    7210008 HIT:    7209804 MISS:        204 MSHR_MERGE:        100
cpu0->cpu0_ITLB RFO          ACCESS:          0 HIT:          0 MISS:          0 MSHR_MERGE:          0
cpu0->cpu0_ITLB PREFETCH     ACCESS:          0 HIT:          0 MISS:          0 MSHR_MERGE:          0
cpu0->cpu0_ITLB WRITE        ACCESS:          0 HIT:          0 MISS:          0 MSHR_MERGE:          0
cpu0->cpu0_ITLB TRANSLATION  ACCESS:          0 HIT:          0 MISS:          0 MSHR_MERGE:          0
cpu0->cpu0_ITLB PREFETCH REQUESTED:          0 ISSUED:          0 USEFUL:          0 USELESS:          0
cpu0->cpu0_ITLB AVERAGE MISS LATENCY: 194.4 cycles
cpu0->cpu0_DTLB TOTAL        ACCESS:   17181061 HIT:   16235566 MISS:     945495 MSHR_MERGE:     117666
cpu0->cpu0_DTLB LOAD         ACCESS:   17181061 HIT:   16235566 MISS:     945495 MSHR_MERGE:     117666
cpu0->cpu0_DTLB RFO          ACCESS:          0 HIT:          0 MISS:          0 MSHR_MERGE:          0
cpu0->cpu0_DTLB PREFETCH     ACCESS:          0 HIT:          0 MISS:          0 MSHR_MERGE:          0
cpu0->cpu0_DTLB WRITE        ACCESS:          0 HIT:          0 MISS:          0 MSHR_MERGE:          0
cpu0->cpu0_DTLB TRANSLATION  ACCESS:          0 HIT:          0 MISS:          0 MSHR_MERGE:          0
cpu0->cpu0_DTLB PREFETCH REQUESTED:          0 ISSUED:          0 USEFUL:          0 USELESS:          0
cpu0->cpu0_DTLB AVERAGE MISS LATENCY: 60.67 cycles
cpu0->LLC TOTAL        ACCESS:    2158537 HIT:     501308 MISS:    1657229 MSHR_MERGE:        342
cpu0->LLC LOAD         ACCESS:     528036 HIT:     124683 MISS:     403353 MSHR_MERGE:          7
cpu0->LLC RFO          ACCESS:      67507 HIT:       9891 MISS:      57616 MSHR_MERGE:          1
cpu0->LLC PREFETCH     ACCESS:     881372 HIT:     169051 MISS:     712321 MSHR_MERGE:        334
cpu0->LLC WRITE        ACCESS:     404627 HIT:     145714 MISS:     258913 MSHR_MERGE:          0
cpu0->LLC TRANSLATION  ACCESS:     276995 HIT:      51969 MISS:     225026 MSHR_MERGE:          0
cpu0->LLC PREFETCH REQUESTED:          0 ISSUED:          0 USEFUL:          0 USELESS:          0
cpu0->LLC AVERAGE MISS LATENCY: 115.8 cycles

DRAM Statistics

Channel 0 RQ ROW_BUFFER_HIT:      27262
  ROW_BUFFER_MISS:    1370582
  AVG DBUS CONGESTED CYCLE: 19.45
Channel 0 WQ ROW_BUFFER_HIT:      79647
  ROW_BUFFER_MISS:     214377
  FULL:          0
Channel 0 REFRESHES ISSUED:      11547
