[VMEM] WARNING: physical memory size is smaller than virtual memory size.
WARNING: option --warmup_instructions is deprecated. Use --warmup-instructions instead.
WARNING: option --simulation_instructions is deprecated. Use --simulation-instructions instead.

*** ChampSim Multicore Out-of-Order Simulator ***
Warmup Instructions: 20000000
Simulation Instructions: 50000000
Number of CPUs: 1
Page size: 8192

Off-chip DRAM Size: 16 GiB Channels: 1 Width: 64-bit Data Rate: 3205 MT/s
Heartbeat CPU 0 instructions: 10000001 cycles: 4662439 heartbeat IPC: 2.145 cumulative IPC: 2.145 (Simulation time: 00 hr 00 min 56 sec)
Heartbeat CPU 0 instructions: 20000002 cycles: 9261670 heartbeat IPC: 2.174 cumulative IPC: 2.159 (Simulation time: 00 hr 01 min 51 sec)
Warmup finished CPU 0 instructions: 20000002 cycles: 9261670 cumulative IPC: 2.159 (Simulation time: 00 hr 01 min 51 sec)
Warmup complete CPU 0 instructions: 20000002 cycles: 9261670 cumulative IPC: 2.159 (Simulation time: 00 hr 01 min 51 sec)
Heartbeat CPU 0 instructions: 30000005 cycles: 39119883 heartbeat IPC: 0.3349 cumulative IPC: 0.3349 (Simulation time: 00 hr 04 min 17 sec)
Heartbeat CPU 0 instructions: 40000005 cycles: 68885745 heartbeat IPC: 0.336 cumulative IPC: 0.3354 (Simulation time: 00 hr 06 min 39 sec)
Heartbeat CPU 0 instructions: 50000007 cycles: 99134094 heartbeat IPC: 0.3306 cumulative IPC: 0.3338 (Simulation time: 00 hr 09 min 05 sec)
Heartbeat CPU 0 instructions: 60000007 cycles: 129165732 heartbeat IPC: 0.333 cumulative IPC: 0.3336 (Simulation time: 00 hr 11 min 25 sec)
Simulation finished CPU 0 instructions: 50000002 cycles: 150256084 cumulative IPC: 0.3328 (Simulation time: 00 hr 13 min 46 sec)
Simulation complete CPU 0 instructions: 50000002 cycles: 150256084 cumulative IPC: 0.3328 (Simulation time: 00 hr 13 min 46 sec)

ChampSim completed all CPUs

=== Simulation ===
CPU 0 runs traces/605.mcf_s-1152B.champsimtrace.xz

Region of Interest Statistics

CPU 0 cumulative IPC: 0.3328 instructions: 50000002 cycles: 150256084
CPU 0 Branch Prediction Accuracy: 90.19% MPKI: 24.48 Average ROB Occupancy at Mispredict: 21.4
Branch type MPKI
BRANCH_DIRECT_JUMP: 0.2057
BRANCH_INDIRECT: 0
BRANCH_CONDITIONAL: 24.27
BRANCH_DIRECT_CALL: 0
BRANCH_INDIRECT_CALL: 0.0036
BRANCH_RETURN: 2e-05

cpu0->cpu0_STLB TOTAL        ACCESS:    1006173 HIT:    1000416 MISS:       5757 MSHR_MERGE:          0
cpu0->cpu0_STLB LOAD         ACCESS:    1006173 HIT:    1000416 MISS:       5757 MSHR_MERGE:          0
cpu0->cpu0_STLB RFO          ACCESS:          0 HIT:          0 MISS:          0 MSHR_MERGE:          0
cpu0->cpu0_STLB PREFETCH     ACCESS:          0 HIT:          0 MISS:          0 MSHR_MERGE:          0
cpu0->cpu0_STLB WRITE        ACCESS:          0 HIT:          0 MISS:          0 MSHR_MERGE:          0
cpu0->cpu0_STLB TRANSLATION  ACCESS:          0 HIT:          0 MISS:          0 MSHR_MERGE:          0
cpu0->cpu0_STLB PREFETCH REQUESTED:          0 ISSUED:          0 USEFUL:          0 USELESS:          0
cpu0->cpu0_STLB AVERAGE MISS LATENCY: 629.6 cycles
cpu0->cpu0_L2C TOTAL        ACCESS:    9078443 HIT:    3075184 MISS:    6003259 MSHR_MERGE:     257199
cpu0->cpu0_L2C LOAD         ACCESS:    2552739 HIT:    1082200 MISS:    1470539 MSHR_MERGE:      29087
cpu0->cpu0_L2C RFO          ACCESS:     187384 HIT:      25155 MISS:     162229 MSHR_MERGE:         83
cpu0->cpu0_L2C PREFETCH     ACCESS:    6064217 HIT:    1702375 MISS:    4361842 MSHR_MERGE:     228029
cpu0->cpu0_L2C WRITE        ACCESS:     265750 HIT:     263996 MISS:       1754 MSHR_MERGE:          0
cpu0->cpu0_L2C TRANSLATION  ACCESS:       8353 HIT:       1458 MISS:       6895 MSHR_MERGE:          0
cpu0->cpu0_L2C PREFETCH REQUESTED:    6437229 ISSUED:    6064217 USEFUL:     798678 USELESS:    3087484
cpu0->cpu0_L2C AVERAGE MISS LATENCY: 58.61 cycles
cpu0->cpu0_L1I TOTAL        ACCESS:     436941 HIT:     436941 MISS:          0 MSHR_MERGE:          0
cpu0->cpu0_L1I LOAD         ACCESS:     436941 HIT:     436941 MISS:          0 MSHR_MERGE:          0
cpu0->cpu0_L1I RFO          ACCESS:          0 HIT:          0 MISS:          0 MSHR_MERGE:          0
cpu0->cpu0_L1I PREFETCH     ACCESS:          0 HIT:          0 MISS:          0 MSHR_MERGE:          0
cpu0->cpu0_L1I WRITE        ACCESS:          0 HIT:          0 MISS:          0 MSHR_MERGE:          0
cpu0->cpu0_L1I TRANSLATION  ACCESS:          0 HIT:          0 MISS:          0 MSHR_MERGE:          0
cpu0->cpu0_L1I PREFETCH REQUESTED:          0 ISSUED:          0 USEFUL:          0 USELESS:          0
cpu0->cpu0_L1I AVERAGE MISS LATENCY: - cycles
cpu0->cpu0_L1D TOTAL        ACCESS:   17981676 HIT:   14377185 MISS:    3604491 MSHR_MERGE:     856009
cpu0->cpu0_L1D LOAD         ACCESS:   12805751 HIT:    9725653 MISS:    3080098 MSHR_MERGE:     527357
cpu0->cpu0_L1D RFO          ACCESS:          0 HIT:          0 MISS:          0 MSHR_MERGE:          0
cpu0->cpu0_L1D PREFETCH     ACCESS:          0 HIT:          0 MISS:          0 MSHR_MERGE:          0
cpu0->cpu0_L1D WRITE        ACCESS:    5164315 HIT:    4648275 MISS:     516040 MSHR_MERGE:     328652
cpu0->cpu0_L1D TRANSLATION  ACCESS:      11610 HIT:       3257 MISS:       8353 MSHR_MERGE:          0
cpu0->cpu0_L1D PREFETCH REQUESTED:          0 ISSUED:          0 USEFUL:          0 USELESS:          0
cpu0->cpu0_L1D AVERAGE MISS LATENCY: 44 cycles
cpu0->cpu0_ITLB TOTAL        ACCESS:     404938 HIT:     404938 MISS:          0 MSHR_MERGE:          0
cpu0->cpu0_ITLB LOAD         ACCESS:     404938 HIT:     404938 MISS:          0 MSHR_MERGE:          0
cpu0->cpu0_ITLB RFO          ACCESS:          0 HIT:          0 MISS:          0 MSHR_MERGE:          0
cpu0->cpu0_ITLB PREFETCH     ACCESS:          0 HIT:          0 MISS:          0 MSHR_MERGE:          0
cpu0->cpu0_ITLB WRITE        ACCESS:          0 HIT:          0 MISS:          0 MSHR_MERGE:          0
cpu0->cpu0_ITLB TRANSLATION  ACCESS:          0 HIT:          0 MISS:          0 MSHR_MERGE:          0
cpu0->cpu0_ITLB PREFETCH REQUESTED:          0 ISSUED:          0 USEFUL:          0 USELESS:          0
cpu0->cpu0_ITLB AVERAGE MISS LATENCY: - cycles
cpu0->cpu0_DTLB TOTAL        ACCESS:   16840949 HIT:   15648080 MISS:    1192869 MSHR_MERGE:     186696
cpu0->cpu0_DTLB LOAD         ACCESS:   16840949 HIT:   15648080 MISS:    1192869 MSHR_MERGE:     186696
cpu0->cpu0_DTLB RFO          ACCESS:          0 HIT:          0 MISS:          0 MSHR_MERGE:          0
cpu0->cpu0_DTLB PREFETCH     ACCESS:          0 HIT:          0 MISS:          0 MSHR_MERGE:          0
cpu0->cpu0_DTLB WRITE        ACCESS:          0 HIT:          0 MISS:          0 MSHR_MERGE:          0
cpu0->cpu0_DTLB TRANSLATION  ACCESS:          0 HIT:          0 MISS:          0 MSHR_MERGE:          0
cpu0->cpu0_DTLB PREFETCH REQUESTED:          0 ISSUED:          0 USEFUL:          0 USELESS:          0
cpu0->cpu0_DTLB AVERAGE MISS LATENCY: 7.608 cycles
cpu0->LLC TOTAL        ACCESS:    5964778 HIT:    3543257 MISS:    2421521 MSHR_MERGE:      45213
cpu0->LLC LOAD         ACCESS:    1441452 HIT:    1024380 MISS:     417072 MSHR_MERGE:        213
cpu0->LLC RFO          ACCESS:     162146 HIT:     147612 MISS:      14534 MSHR_MERGE:          0
cpu0->LLC PREFETCH     ACCESS:    4133812 HIT:    2166695 MISS:    1967117 MSHR_MERGE:      45000
cpu0->LLC WRITE        ACCESS:     220473 HIT:     204543 MISS:      15930 MSHR_MERGE:          0
cpu0->LLC TRANSLATION  ACCESS:       6895 HIT:         27 MISS:       6868 MSHR_MERGE:          0
cpu0->LLC PREFETCH REQUESTED:          0 ISSUED:          0 USEFUL:          0 USELESS:          0
cpu0->LLC AVERAGE MISS LATENCY: 148.4 cycles

DRAM Statistics

Channel 0 RQ ROW_BUFFER_HIT:      85891
  ROW_BUFFER_MISS:    2274340
  AVG DBUS CONGESTED CYCLE: 13.53
Channel 0 WQ ROW_BUFFER_HIT:       6189
  ROW_BUFFER_MISS:      18988
  FULL:          0
Channel 0 REFRESHES ISSUED:      12522
