[VMEM] WARNING: physical memory size is smaller than virtual memory size.
WARNING: option --warmup_instructions is deprecated. Use --warmup-instructions instead.
WARNING: option --simulation_instructions is deprecated. Use --simulation-instructions instead.

*** ChampSim Multicore Out-of-Order Simulator ***
Warmup Instructions: 20000000
Simulation Instructions: 50000000
Number of CPUs: 1
Page size: 8192

Off-chip DRAM Size: 16 GiB Channels: 1 Width: 64-bit Data Rate: 3205 MT/s
Heartbeat CPU 0 instructions: 10000000 cycles: 4304830 heartbeat IPC: 2.323 cumulative IPC: 2.323 (Simulation time: 00 hr 00 min 52 sec)
Heartbeat CPU 0 instructions: 20000000 cycles: 8601594 heartbeat IPC: 2.327 cumulative IPC: 2.325 (Simulation time: 00 hr 01 min 42 sec)
Warmup finished CPU 0 instructions: 20000000 cycles: 8601594 cumulative IPC: 2.325 (Simulation time: 00 hr 01 min 42 sec)
Warmup complete CPU 0 instructions: 20000000 cycles: 8601594 cumulative IPC: 2.325 (Simulation time: 00 hr 01 min 42 sec)
Heartbeat CPU 0 instructions: 30000002 cycles: 17394728 heartbeat IPC: 1.137 cumulative IPC: 1.137 (Simulation time: 00 hr 03 min 01 sec)
Heartbeat CPU 0 instructions: 40000002 cycles: 26218594 heartbeat IPC: 1.133 cumulative IPC: 1.135 (Simulation time: 00 hr 04 min 21 sec)
Heartbeat CPU 0 instructions: 50000003 cycles: 35034850 heartbeat IPC: 1.134 cumulative IPC: 1.135 (Simulation time: 00 hr 05 min 42 sec)
Heartbeat CPU 0 instructions: 60000005 cycles: 43869944 heartbeat IPC: 1.132 cumulative IPC: 1.134 (Simulation time: 00 hr 07 min 02 sec)
Simulation finished CPU 0 instructions: 50000000 cycles: 44117613 cumulative IPC: 1.133 (Simulation time: 00 hr 08 min 22 sec)
Simulation complete CPU 0 instructions: 50000000 cycles: 44117613 cumulative IPC: 1.133 (Simulation time: 00 hr 08 min 22 sec)

ChampSim completed all CPUs

=== Simulation ===
CPU 0 runs traces/603.bwaves_s-1740B.champsimtrace.xz

Region of Interest Statistics

CPU 0 cumulative IPC: 1.133 instructions: 50000000 cycles: 44117613
CPU 0 Branch Prediction Accuracy: 99.97% MPKI: 0.00734 Average ROB Occupancy at Mispredict: 190
Branch type MPKI
BRANCH_DIRECT_JUMP: 0
BRANCH_INDIRECT: 0
BRANCH_CONDITIONAL: 0.00734
BRANCH_DIRECT_CALL: 0
BRANCH_INDIRECT_CALL: 0
BRANCH_RETURN: 0

cpu0->cpu0_STLB TOTAL        ACCESS:       7425 HIT:        365 MISS:       7060 MSHR_MERGE:          0
cpu0->cpu0_STLB LOAD         ACCESS:       7425 HIT:        365 MISS:       7060 MSHR_MERGE:          0
cpu0->cpu0_STLB RFO          ACCESS:          0 HIT:          0 MISS:          0 MSHR_MERGE:          0
cpu0->cpu0_STLB PREFETCH     ACCESS:          0 HIT:          0 MISS:          0 MSHR_MERGE:          0
cpu0->cpu0_STLB WRITE        ACCESS:          0 HIT:          0 MISS:          0 MSHR_MERGE:          0
cpu0->cpu0_STLB TRANSLATION  ACCESS:          0 HIT:          0 MISS:          0 MSHR_MERGE:          0
cpu0->cpu0_STLB PREFETCH REQUESTED:          0 ISSUED:          0 USEFUL:          0 USELESS:          0
cpu0->cpu0_STLB AVERAGE MISS LATENCY: 715.3 cycles
cpu0->cpu0_L2C TOTAL        ACCESS:    3415661 HIT:    2045481 MISS:    1370180 MSHR_MERGE:     379817
cpu0->cpu0_L2C LOAD         ACCESS:    1020335 HIT:     889100 MISS:     131235 MSHR_MERGE:     108137
cpu0->cpu0_L2C RFO          ACCESS:      32830 HIT:       8468 MISS:      24362 MSHR_MERGE:          0
cpu0->cpu0_L2C PREFETCH     ACCESS:    2312421 HIT:    1108567 MISS:    1203854 MSHR_MERGE:     271680
cpu0->cpu0_L2C WRITE        ACCESS:      36550 HIT:      36241 MISS:        309 MSHR_MERGE:          0
cpu0->cpu0_L2C TRANSLATION  ACCESS:      13525 HIT:       3105 MISS:      10420 MSHR_MERGE:          0
cpu0->cpu0_L2C PREFETCH REQUESTED:    2528372 ISSUED:    2312407 USEFUL:     910054 USELESS:      22115
cpu0->cpu0_L2C AVERAGE MISS LATENCY: 133.1 cycles
cpu0->cpu0_L1I TOTAL        ACCESS:   12003320 HIT:   12003320 MISS:          0 MSHR_MERGE:          0
cpu0->cpu0_L1I LOAD         ACCESS:   12003320 HIT:   12003320 MISS:          0 MSHR_MERGE:          0
cpu0->cpu0_L1I RFO          ACCESS:          0 HIT:          0 MISS:          0 MSHR_MERGE:          0
cpu0->cpu0_L1I PREFETCH     ACCESS:          0 HIT:          0 MISS:          0 MSHR_MERGE:          0
cpu0->cpu0_L1I WRITE        ACCESS:          0 HIT:          0 MISS:          0 MSHR_MERGE:          0
cpu0->cpu0_L1I TRANSLATION  ACCESS:          0 HIT:          0 MISS:          0 MSHR_MERGE:          0
cpu0->cpu0_L1I PREFETCH REQUESTED:          0 ISSUED:          0 USEFUL:          0 USELESS:          0
cpu0->cpu0_L1I AVERAGE MISS LATENCY: - cycles
cpu0->cpu0_L1D TOTAL        ACCESS:   17045334 HIT:   15889148 MISS:    1156186 MSHR_MERGE:      89328
cpu0->cpu0_L1D LOAD         ACCESS:   14214583 HIT:   13129604 MISS:    1084979 MSHR_MERGE:      64581
cpu0->cpu0_L1D RFO          ACCESS:          0 HIT:          0 MISS:          0 MSHR_MERGE:          0
cpu0->cpu0_L1D PREFETCH     ACCESS:          0 HIT:          0 MISS:          0 MSHR_MERGE:          0
cpu0->cpu0_L1D WRITE        ACCESS:    2816699 HIT:    2759271 MISS:      57428 MSHR_MERGE:      24493
cpu0->cpu0_L1D TRANSLATION  ACCESS:      14052 HIT:        273 MISS:      13779 MSHR_MERGE:        254
cpu0->cpu0_L1D PREFETCH REQUESTED:          0 ISSUED:          0 USEFUL:          0 USELESS:          0
cpu0->cpu0_L1D AVERAGE MISS LATENCY: 41.13 cycles
cpu0->cpu0_ITLB TOTAL        ACCESS:   10870542 HIT:   10870542 MISS:          0 MSHR_MERGE:          0
cpu0->cpu0_ITLB LOAD         ACCESS:   10870542 HIT:   10870542 MISS:          0 MSHR_MERGE:          0
cpu0->cpu0_ITLB RFO          ACCESS:          0 HIT:          0 MISS:          0 MSHR_MERGE:          0
cpu0->cpu0_ITLB PREFETCH     ACCESS:          0 HIT:          0 MISS:          0 MSHR_MERGE:          0
cpu0->cpu0_ITLB WRITE        ACCESS:          0 HIT:          0 MISS:          0 MSHR_MERGE:          0
cpu0->cpu0_ITLB TRANSLATION  ACCESS:          0 HIT:          0 MISS:          0 MSHR_MERGE:          0
cpu0->cpu0_ITLB PREFETCH REQUESTED:          0 ISSUED:          0 USEFUL:          0 USELESS:          0
cpu0->cpu0_ITLB AVERAGE MISS LATENCY: - cycles
cpu0->cpu0_DTLB TOTAL        ACCESS:   16387510 HIT:   16374928 MISS:      12582 MSHR_MERGE:       5157
cpu0->cpu0_DTLB LOAD         ACCESS:   16387510 HIT:   16374928 MISS:      12582 MSHR_MERGE:       5157
cpu0->cpu0_DTLB RFO          ACCESS:          0 HIT:          0 MISS:          0 MSHR_MERGE:          0
cpu0->cpu0_DTLB PREFETCH     ACCESS:          0 HIT:          0 MISS:          0 MSHR_MERGE:          0
cpu0->cpu0_DTLB WRITE        ACCESS:          0 HIT:          0 MISS:          0 MSHR_MERGE:          0
cpu0->cpu0_DTLB TRANSLATION  ACCESS:          0 HIT:          0 MISS:          0 MSHR_MERGE:          0
cpu0->cpu0_DTLB PREFETCH REQUESTED:          0 ISSUED:          0 USEFUL:          0 USELESS:          0
cpu0->cpu0_DTLB AVERAGE MISS LATENCY: 685.1 cycles
cpu0->LLC TOTAL        ACCESS:    1014792 HIT:       4529 MISS:    1010263 MSHR_MERGE:          0
cpu0->LLC LOAD         ACCESS:      23098 HIT:        312 MISS:      22786 MSHR_MERGE:          0
cpu0->LLC RFO          ACCESS:      24362 HIT:          0 MISS:      24362 MSHR_MERGE:          0
cpu0->LLC PREFETCH     ACCESS:     932174 HIT:       1360 MISS:     930814 MSHR_MERGE:          0
cpu0->LLC WRITE        ACCESS:      24738 HIT:       2848 MISS:      21890 MSHR_MERGE:          0
cpu0->LLC TRANSLATION  ACCESS:      10420 HIT:          9 MISS:      10411 MSHR_MERGE:          0
cpu0->LLC PREFETCH REQUESTED:          0 ISSUED:          0 USEFUL:          0 USELESS:          0
cpu0->LLC AVERAGE MISS LATENCY: 122.4 cycles

DRAM Statistics

Channel 0 RQ ROW_BUFFER_HIT:        976
  ROW_BUFFER_MISS:     987397
  AVG DBUS CONGESTED CYCLE: 4.319
Channel 0 WQ ROW_BUFFER_HIT:       2634
  ROW_BUFFER_MISS:      21826
  FULL:          0
Channel 0 REFRESHES ISSUED:       3677
