[VMEM] WARNING: physical memory size is smaller than virtual memory size.
WARNING: option --warmup_instructions is deprecated. Use --warmup-instructions instead.
WARNING: option --simulation_instructions is deprecated. Use --simulation-instructions instead.

*** ChampSim Multicore Out-of-Order Simulator ***
Warmup Instructions: 20000000
Simulation Instructions: 50000000
Number of CPUs: 1
Page size: 8192

Off-chip DRAM Size: 32 GiB Channels: 2 Width: 64-bit Data Rate: 3205 MT/s
Heartbeat CPU 0 instructions: 10000000 cycles: 4303110 heartbeat IPC: 2.324 cumulative IPC: 2.324 (Simulation time: 00 hr 01 min 45 sec)
Heartbeat CPU 0 instructions: 20000000 cycles: 8598055 heartbeat IPC: 2.328 cumulative IPC: 2.326 (Simulation time: 00 hr 03 min 39 sec)
Warmup finished CPU 0 instructions: 20000000 cycles: 8598055 cumulative IPC: 2.326 (Simulation time: 00 hr 03 min 39 sec)
Warmup complete CPU 0 instructions: 20000000 cycles: 8598055 cumulative IPC: 2.326 (Simulation time: 00 hr 03 min 39 sec)
Heartbeat CPU 0 instructions: 30000003 cycles: 17038692 heartbeat IPC: 1.185 cumulative IPC: 1.185 (Simulation time: 00 hr 06 min 30 sec)
Heartbeat CPU 0 instructions: 40000003 cycles: 25466467 heartbeat IPC: 1.187 cumulative IPC: 1.186 (Simulation time: 00 hr 09 min 27 sec)
Heartbeat CPU 0 instructions: 50000003 cycles: 33885350 heartbeat IPC: 1.188 cumulative IPC: 1.186 (Simulation time: 00 hr 12 min 13 sec)
Heartbeat CPU 0 instructions: 60000005 cycles: 42305985 heartbeat IPC: 1.188 cumulative IPC: 1.187 (Simulation time: 00 hr 15 min 01 sec)
Simulation finished CPU 0 instructions: 50000000 cycles: 42133992 cumulative IPC: 1.187 (Simulation time: 00 hr 17 min 49 sec)
Simulation complete CPU 0 instructions: 50000000 cycles: 42133992 cumulative IPC: 1.187 (Simulation time: 00 hr 17 min 49 sec)

ChampSim completed all CPUs

=== Simulation ===
CPU 0 runs traces/A2/603.bwaves_s-1740B.champsimtrace.xz

Region of Interest Statistics

CPU 0 cumulative IPC: 1.187 instructions: 50000000 cycles: 42133992
CPU 0 Branch Prediction Accuracy: 99.97% MPKI: 0.00734 Average ROB Occupancy at Mispredict: 189.8
Branch type MPKI
BRANCH_DIRECT_JUMP: 0
BRANCH_INDIRECT: 0
BRANCH_CONDITIONAL: 0.00734
BRANCH_DIRECT_CALL: 0
BRANCH_INDIRECT_CALL: 0
BRANCH_RETURN: 0

cpu0->cpu0_STLB TOTAL        ACCESS:       7425 HIT:        365 MISS:       7060 MSHR_MERGE:          0
cpu0->cpu0_STLB LOAD         ACCESS:       7425 HIT:        365 MISS:       7060 MSHR_MERGE:          0
cpu0->cpu0_STLB RFO          ACCESS:          0 HIT:          0 MISS:          0 MSHR_MERGE:          0
cpu0->cpu0_STLB PREFETCH     ACCESS:          0 HIT:          0 MISS:          0 MSHR_MERGE:          0
cpu0->cpu0_STLB WRITE        ACCESS:          0 HIT:          0 MISS:          0 MSHR_MERGE:          0
cpu0->cpu0_STLB TRANSLATION  ACCESS:          0 HIT:          0 MISS:          0 MSHR_MERGE:          0
cpu0->cpu0_STLB PREFETCH REQUESTED:          0 ISSUED:          0 USEFUL:          0 USELESS:          0
cpu0->cpu0_STLB AVERAGE MISS LATENCY: 679 cycles
cpu0->cpu0_L2C TOTAL        ACCESS:    3286294 HIT:    1451684 MISS:    1834610 MSHR_MERGE:     378367
cpu0->cpu0_L2C LOAD         ACCESS:    1020335 HIT:     787383 MISS:     232952 MSHR_MERGE:      90898
cpu0->cpu0_L2C RFO          ACCESS:      32917 HIT:       8555 MISS:      24362 MSHR_MERGE:          0
cpu0->cpu0_L2C PREFETCH     ACCESS:    2182938 HIT:     616434 MISS:    1566504 MSHR_MERGE:     287469
cpu0->cpu0_L2C WRITE        ACCESS:      36524 HIT:      36242 MISS:        282 MSHR_MERGE:          0
cpu0->cpu0_L2C TRANSLATION  ACCESS:      13580 HIT:       3070 MISS:      10510 MSHR_MERGE:          0
cpu0->cpu0_L2C PREFETCH REQUESTED:    2183000 ISSUED:    2182934 USEFUL:     791015 USELESS:          0
cpu0->cpu0_L2C AVERAGE MISS LATENCY: 82.61 cycles
cpu0->cpu0_L1I TOTAL        ACCESS:   11933728 HIT:   11933728 MISS:          0 MSHR_MERGE:          0
cpu0->cpu0_L1I LOAD         ACCESS:   11933728 HIT:   11933728 MISS:          0 MSHR_MERGE:          0
cpu0->cpu0_L1I RFO          ACCESS:          0 HIT:          0 MISS:          0 MSHR_MERGE:          0
cpu0->cpu0_L1I PREFETCH     ACCESS:          0 HIT:          0 MISS:          0 MSHR_MERGE:          0
cpu0->cpu0_L1I WRITE        ACCESS:          0 HIT:          0 MISS:          0 MSHR_MERGE:          0
cpu0->cpu0_L1I TRANSLATION  ACCESS:          0 HIT:          0 MISS:          0 MSHR_MERGE:          0
cpu0->cpu0_L1I PREFETCH REQUESTED:          0 ISSUED:          0 USEFUL:          0 USELESS:          0
cpu0->cpu0_L1I AVERAGE MISS LATENCY: - cycles
cpu0->cpu0_L1D TOTAL        ACCESS:   17114735 HIT:   15988719 MISS:    1126016 MSHR_MERGE:      59056
cpu0->cpu0_L1D LOAD         ACCESS:   14283987 HIT:   13224781 MISS:    1059206 MSHR_MERGE:      38810
cpu0->cpu0_L1D RFO          ACCESS:          0 HIT:          0 MISS:          0 MSHR_MERGE:          0
cpu0->cpu0_L1D PREFETCH     ACCESS:          0 HIT:          0 MISS:          0 MSHR_MERGE:          0
cpu0->cpu0_L1D WRITE        ACCESS:    2816699 HIT:    2763684 MISS:      53015 MSHR_MERGE:      20031
cpu0->cpu0_L1D TRANSLATION  ACCESS:      14049 HIT:        254 MISS:      13795 MSHR_MERGE:        215
cpu0->cpu0_L1D PREFETCH REQUESTED:          0 ISSUED:          0 USEFUL:          0 USELESS:          0
cpu0->cpu0_L1D AVERAGE MISS LATENCY: 29.19 cycles
cpu0->cpu0_ITLB TOTAL        ACCESS:   10792907 HIT:   10792907 MISS:          0 MSHR_MERGE:          0
cpu0->cpu0_ITLB LOAD         ACCESS:   10792907 HIT:   10792907 MISS:          0 MSHR_MERGE:          0
cpu0->cpu0_ITLB RFO          ACCESS:          0 HIT:          0 MISS:          0 MSHR_MERGE:          0
cpu0->cpu0_ITLB PREFETCH     ACCESS:          0 HIT:          0 MISS:          0 MSHR_MERGE:          0
cpu0->cpu0_ITLB WRITE        ACCESS:          0 HIT:          0 MISS:          0 MSHR_MERGE:          0
cpu0->cpu0_ITLB TRANSLATION  ACCESS:          0 HIT:          0 MISS:          0 MSHR_MERGE:          0
cpu0->cpu0_ITLB PREFETCH REQUESTED:          0 ISSUED:          0 USEFUL:          0 USELESS:          0
cpu0->cpu0_ITLB AVERAGE MISS LATENCY: - cycles
cpu0->cpu0_DTLB TOTAL        ACCESS:   16451544 HIT:   16438741 MISS:      12803 MSHR_MERGE:       5378
cpu0->cpu0_DTLB LOAD         ACCESS:   16451544 HIT:   16438741 MISS:      12803 MSHR_MERGE:       5378
cpu0->cpu0_DTLB RFO          ACCESS:          0 HIT:          0 MISS:          0 MSHR_MERGE:          0
cpu0->cpu0_DTLB PREFETCH     ACCESS:          0 HIT:          0 MISS:          0 MSHR_MERGE:          0
cpu0->cpu0_DTLB WRITE        ACCESS:          0 HIT:          0 MISS:          0 MSHR_MERGE:          0
cpu0->cpu0_DTLB TRANSLATION  ACCESS:          0 HIT:          0 MISS:          0 MSHR_MERGE:          0
cpu0->cpu0_DTLB PREFETCH REQUESTED:          0 ISSUED:          0 USEFUL:          0 USELESS:          0
cpu0->cpu0_DTLB AVERAGE MISS LATENCY: 650.6 cycles
cpu0->LLC TOTAL        ACCESS:    1480732 HIT:     370481 MISS:    1110251 MSHR_MERGE:      94682
cpu0->LLC LOAD         ACCESS:     142054 HIT:      97156 MISS:      44898 MSHR_MERGE:       8057
cpu0->LLC RFO          ACCESS:      24362 HIT:          0 MISS:      24362 MSHR_MERGE:          0
cpu0->LLC PREFETCH     ACCESS:    1279035 HIT:     270828 MISS:    1008207 MSHR_MERGE:      86625
cpu0->LLC WRITE        ACCESS:      24771 HIT:       2487 MISS:      22284 MSHR_MERGE:          0
cpu0->LLC TRANSLATION  ACCESS:      10510 HIT:         10 MISS:      10500 MSHR_MERGE:          0
cpu0->LLC PREFETCH REQUESTED:          0 ISSUED:          0 USEFUL:          0 USELESS:          0
cpu0->LLC AVERAGE MISS LATENCY: 113.9 cycles

DRAM Statistics

Channel 0 RQ ROW_BUFFER_HIT:      11498
  ROW_BUFFER_MISS:     485333
  AVG DBUS CONGESTED CYCLE: 6.006
Channel 0 WQ ROW_BUFFER_HIT:       1034
  ROW_BUFFER_MISS:      11721
  FULL:          0
Channel 0 REFRESHES ISSUED:       3511

Channel 1 RQ ROW_BUFFER_HIT:      11183
  ROW_BUFFER_MISS:     485272
  AVG DBUS CONGESTED CYCLE: 5.961
Channel 1 WQ ROW_BUFFER_HIT:       1072
  ROW_BUFFER_MISS:      11707
  FULL:          0
Channel 1 REFRESHES ISSUED:       3511
