[VMEM] WARNING: physical memory size is smaller than virtual memory size.
WARNING: option --warmup_instructions is deprecated. Use --warmup-instructions instead.
WARNING: option --simulation_instructions is deprecated. Use --simulation-instructions instead.

*** ChampSim Multicore Out-of-Order Simulator ***
Warmup Instructions: 20000000
Simulation Instructions: 50000000
Number of CPUs: 1
Page size: 8192

Off-chip DRAM Size: 32 GiB Channels: 2 Width: 64-bit Data Rate: 3205 MT/s
Heartbeat CPU 0 instructions: 10000001 cycles: 2972647 heartbeat IPC: 3.364 cumulative IPC: 3.364 (Simulation time: 00 hr 01 min 17 sec)
Warmup finished CPU 0 instructions: 20000000 cycles: 5933442 cumulative IPC: 3.371 (Simulation time: 00 hr 02 min 36 sec)
Warmup complete CPU 0 instructions: 20000000 cycles: 5933442 cumulative IPC: 3.371 (Simulation time: 00 hr 02 min 36 sec)
Heartbeat CPU 0 instructions: 20000004 cycles: 5933443 heartbeat IPC: 3.377 cumulative IPC: 4 (Simulation time: 00 hr 02 min 36 sec)
Heartbeat CPU 0 instructions: 30000006 cycles: 15806551 heartbeat IPC: 1.013 cumulative IPC: 1.013 (Simulation time: 00 hr 06 min 15 sec)
Heartbeat CPU 0 instructions: 40000009 cycles: 25631455 heartbeat IPC: 1.018 cumulative IPC: 1.015 (Simulation time: 00 hr 09 min 51 sec)
Heartbeat CPU 0 instructions: 50000009 cycles: 35419945 heartbeat IPC: 1.022 cumulative IPC: 1.017 (Simulation time: 00 hr 13 min 17 sec)
Heartbeat CPU 0 instructions: 60000012 cycles: 45203211 heartbeat IPC: 1.022 cumulative IPC: 1.019 (Simulation time: 00 hr 16 min 44 sec)
Simulation finished CPU 0 instructions: 50000000 cycles: 49053395 cumulative IPC: 1.019 (Simulation time: 00 hr 20 min 11 sec)
Simulation complete CPU 0 instructions: 50000000 cycles: 49053395 cumulative IPC: 1.019 (Simulation time: 00 hr 20 min 11 sec)

ChampSim completed all CPUs

=== Simulation ===
CPU 0 runs traces/A2/470.lbm-1274B.champsimtrace.xz

Region of Interest Statistics

CPU 0 cumulative IPC: 1.019 instructions: 50000000 cycles: 49053395
CPU 0 Branch Prediction Accuracy: 99.79% MPKI: 0.02864 Average ROB Occupancy at Mispredict: 189.9
Branch type MPKI
BRANCH_DIRECT_JUMP: 0
BRANCH_INDIRECT: 0
BRANCH_CONDITIONAL: 0.02864
BRANCH_DIRECT_CALL: 0
BRANCH_INDIRECT_CALL: 0
BRANCH_RETURN: 0

cpu0->cpu0_STLB TOTAL        ACCESS:      11115 HIT:       5557 MISS:       5558 MSHR_MERGE:          0
cpu0->cpu0_STLB LOAD         ACCESS:      11115 HIT:       5557 MISS:       5558 MSHR_MERGE:          0
cpu0->cpu0_STLB RFO          ACCESS:          0 HIT:          0 MISS:          0 MSHR_MERGE:          0
cpu0->cpu0_STLB PREFETCH     ACCESS:          0 HIT:          0 MISS:          0 MSHR_MERGE:          0
cpu0->cpu0_STLB WRITE        ACCESS:          0 HIT:          0 MISS:          0 MSHR_MERGE:          0
cpu0->cpu0_STLB TRANSLATION  ACCESS:          0 HIT:          0 MISS:          0 MSHR_MERGE:          0
cpu0->cpu0_STLB PREFETCH REQUESTED:          0 ISSUED:          0 USEFUL:          0 USELESS:          0
cpu0->cpu0_STLB AVERAGE MISS LATENCY: 774.9 cycles
cpu0->cpu0_L2C TOTAL        ACCESS:    4660689 HIT:    3036060 MISS:    1624629 MSHR_MERGE:        152
cpu0->cpu0_L2C LOAD         ACCESS:     355730 HIT:      50472 MISS:     305258 MSHR_MERGE:         16
cpu0->cpu0_L2C RFO          ACCESS:    2002709 HIT:     925872 MISS:    1076837 MSHR_MERGE:          0
cpu0->cpu0_L2C PREFETCH     ACCESS:     288356 HIT:      54521 MISS:     233835 MSHR_MERGE:        136
cpu0->cpu0_L2C WRITE        ACCESS:    2002766 HIT:    2002751 MISS:         15 MSHR_MERGE:          0
cpu0->cpu0_L2C TRANSLATION  ACCESS:      11128 HIT:       2444 MISS:       8684 MSHR_MERGE:          0
cpu0->cpu0_L2C PREFETCH REQUESTED:     288356 ISSUED:     288356 USEFUL:      50488 USELESS:          0
cpu0->cpu0_L2C AVERAGE MISS LATENCY: 207.5 cycles
cpu0->cpu0_L1I TOTAL        ACCESS:    8397185 HIT:    8397185 MISS:          0 MSHR_MERGE:          0
cpu0->cpu0_L1I LOAD         ACCESS:    8397185 HIT:    8397185 MISS:          0 MSHR_MERGE:          0
cpu0->cpu0_L1I RFO          ACCESS:          0 HIT:          0 MISS:          0 MSHR_MERGE:          0
cpu0->cpu0_L1I PREFETCH     ACCESS:          0 HIT:          0 MISS:          0 MSHR_MERGE:          0
cpu0->cpu0_L1I WRITE        ACCESS:          0 HIT:          0 MISS:          0 MSHR_MERGE:          0
cpu0->cpu0_L1I TRANSLATION  ACCESS:          0 HIT:          0 MISS:          0 MSHR_MERGE:          0
cpu0->cpu0_L1I PREFETCH REQUESTED:          0 ISSUED:          0 USEFUL:          0 USELESS:          0
cpu0->cpu0_L1I AVERAGE MISS LATENCY: - cycles
cpu0->cpu0_L1D TOTAL        ACCESS:    7345069 HIT:    4790806 MISS:    2554263 MSHR_MERGE:     184640
cpu0->cpu0_L1D LOAD         ACCESS:    2310422 HIT:    1793502 MISS:     516920 MSHR_MERGE:     161190
cpu0->cpu0_L1D RFO          ACCESS:          0 HIT:          0 MISS:          0 MSHR_MERGE:          0
cpu0->cpu0_L1D PREFETCH     ACCESS:          0 HIT:          0 MISS:          0 MSHR_MERGE:          0
cpu0->cpu0_L1D WRITE        ACCESS:    5023519 HIT:    2997304 MISS:    2026215 MSHR_MERGE:      23450
cpu0->cpu0_L1D TRANSLATION  ACCESS:      11128 HIT:          0 MISS:      11128 MSHR_MERGE:          0
cpu0->cpu0_L1D PREFETCH REQUESTED:          0 ISSUED:          0 USEFUL:          0 USELESS:          0
cpu0->cpu0_L1D AVERAGE MISS LATENCY: 130.6 cycles
cpu0->cpu0_ITLB TOTAL        ACCESS:    6833509 HIT:    6833509 MISS:          0 MSHR_MERGE:          0
cpu0->cpu0_ITLB LOAD         ACCESS:    6833509 HIT:    6833509 MISS:          0 MSHR_MERGE:          0
cpu0->cpu0_ITLB RFO          ACCESS:          0 HIT:          0 MISS:          0 MSHR_MERGE:          0
cpu0->cpu0_ITLB PREFETCH     ACCESS:          0 HIT:          0 MISS:          0 MSHR_MERGE:          0
cpu0->cpu0_ITLB WRITE        ACCESS:          0 HIT:          0 MISS:          0 MSHR_MERGE:          0
cpu0->cpu0_ITLB TRANSLATION  ACCESS:          0 HIT:          0 MISS:          0 MSHR_MERGE:          0
cpu0->cpu0_ITLB PREFETCH REQUESTED:          0 ISSUED:          0 USEFUL:          0 USELESS:          0
cpu0->cpu0_ITLB AVERAGE MISS LATENCY: - cycles
cpu0->cpu0_DTLB TOTAL        ACCESS:    6814156 HIT:    6791836 MISS:      22320 MSHR_MERGE:      11205
cpu0->cpu0_DTLB LOAD         ACCESS:    6814156 HIT:    6791836 MISS:      22320 MSHR_MERGE:      11205
cpu0->cpu0_DTLB RFO          ACCESS:          0 HIT:          0 MISS:          0 MSHR_MERGE:          0
cpu0->cpu0_DTLB PREFETCH     ACCESS:          0 HIT:          0 MISS:          0 MSHR_MERGE:          0
cpu0->cpu0_DTLB WRITE        ACCESS:          0 HIT:          0 MISS:          0 MSHR_MERGE:          0
cpu0->cpu0_DTLB TRANSLATION  ACCESS:          0 HIT:          0 MISS:          0 MSHR_MERGE:          0
cpu0->cpu0_DTLB PREFETCH REQUESTED:          0 ISSUED:          0 USEFUL:          0 USELESS:          0
cpu0->cpu0_DTLB AVERAGE MISS LATENCY: 392 cycles
cpu0->LLC TOTAL        ACCESS:    2701517 HIT:     246379 MISS:    2455138 MSHR_MERGE:        780
cpu0->LLC LOAD         ACCESS:     305242 HIT:      95906 MISS:     209336 MSHR_MERGE:        115
cpu0->LLC RFO          ACCESS:    1076835 HIT:      19131 MISS:    1057704 MSHR_MERGE:          0
cpu0->LLC PREFETCH     ACCESS:     233699 HIT:      86503 MISS:     147196 MSHR_MERGE:        665
cpu0->LLC WRITE        ACCESS:    1077057 HIT:      44839 MISS:    1032218 MSHR_MERGE:          0
cpu0->LLC TRANSLATION  ACCESS:       8684 HIT:          0 MISS:       8684 MSHR_MERGE:          0
cpu0->LLC PREFETCH REQUESTED:          0 ISSUED:          0 USEFUL:          0 USELESS:          0
cpu0->LLC AVERAGE MISS LATENCY: 118.9 cycles

DRAM Statistics

Channel 0 RQ ROW_BUFFER_HIT:        603
  ROW_BUFFER_MISS:     710431
  AVG DBUS CONGESTED CYCLE: 14.41
Channel 0 WQ ROW_BUFFER_HIT:      83317
  ROW_BUFFER_MISS:     454688
  FULL:         33
Channel 0 REFRESHES ISSUED:       4088

Channel 1 RQ ROW_BUFFER_HIT:        557
  ROW_BUFFER_MISS:     710389
  AVG DBUS CONGESTED CYCLE: 14.39
Channel 1 WQ ROW_BUFFER_HIT:      83066
  ROW_BUFFER_MISS:     455002
  FULL:         61
Channel 1 REFRESHES ISSUED:       4088
