[VMEM] WARNING: physical memory size is smaller than virtual memory size.
WARNING: option --warmup_instructions is deprecated. Use --warmup-instructions instead.
WARNING: option --simulation_instructions is deprecated. Use --simulation-instructions instead.

*** ChampSim Multicore Out-of-Order Simulator ***
Warmup Instructions: 20000000
Simulation Instructions: 40000000
Number of CPUs: 1
Page size: 8192

Off-chip DRAM Size: 16 GiB Channels: 1 Width: 64-bit Data Rate: 3205 MT/s
Heartbeat CPU 0 instructions: 10000003 cycles: 4567922 heartbeat IPC: 2.189 cumulative IPC: 2.189 (Simulation time: 00 hr 01 min 35 sec)
Warmup finished CPU 0 instructions: 20000000 cycles: 9082958 cumulative IPC: 2.202 (Simulation time: 00 hr 03 min 11 sec)
Warmup complete CPU 0 instructions: 20000000 cycles: 9082958 cumulative IPC: 2.202 (Simulation time: 00 hr 03 min 11 sec)
Heartbeat CPU 0 instructions: 20000006 cycles: 9082959 heartbeat IPC: 2.215 cumulative IPC: 6 (Simulation time: 00 hr 03 min 11 sec)
Heartbeat CPU 0 instructions: 30000009 cycles: 40460323 heartbeat IPC: 0.3187 cumulative IPC: 0.3187 (Simulation time: 00 hr 08 min 06 sec)
Heartbeat CPU 0 instructions: 40000013 cycles: 71425710 heartbeat IPC: 0.3229 cumulative IPC: 0.3208 (Simulation time: 00 hr 13 min 01 sec)
Heartbeat CPU 0 instructions: 50000016 cycles: 102788043 heartbeat IPC: 0.3189 cumulative IPC: 0.3202 (Simulation time: 00 hr 17 min 59 sec)
Simulation finished CPU 0 instructions: 40000000 cycles: 124574090 cumulative IPC: 0.3211 (Simulation time: 00 hr 22 min 55 sec)
Simulation complete CPU 0 instructions: 40000000 cycles: 124574090 cumulative IPC: 0.3211 (Simulation time: 00 hr 22 min 55 sec)

ChampSim completed all CPUs

=== Simulation ===
CPU 0 runs traces/A2/605.mcf_s-1152B.champsimtrace.xz

Region of Interest Statistics

CPU 0 cumulative IPC: 0.3211 instructions: 40000000 cycles: 124574090
CPU 0 Branch Prediction Accuracy: 90.22% MPKI: 24.39 Average ROB Occupancy at Mispredict: 19
Branch type MPKI
BRANCH_DIRECT_JUMP: 0.2077
BRANCH_INDIRECT: 0
BRANCH_CONDITIONAL: 24.18
BRANCH_DIRECT_CALL: 0
BRANCH_INDIRECT_CALL: 0.00435
BRANCH_RETURN: 2.5e-05

cpu0->cpu0_STLB TOTAL        ACCESS:     798144 HIT:     793581 MISS:       4563 MSHR_MERGE:          0
cpu0->cpu0_STLB LOAD         ACCESS:     798144 HIT:     793581 MISS:       4563 MSHR_MERGE:          0
cpu0->cpu0_STLB RFO          ACCESS:          0 HIT:          0 MISS:          0 MSHR_MERGE:          0
cpu0->cpu0_STLB PREFETCH     ACCESS:          0 HIT:          0 MISS:          0 MSHR_MERGE:          0
cpu0->cpu0_STLB WRITE        ACCESS:          0 HIT:          0 MISS:          0 MSHR_MERGE:          0
cpu0->cpu0_STLB TRANSLATION  ACCESS:          0 HIT:          0 MISS:          0 MSHR_MERGE:          0
cpu0->cpu0_STLB PREFETCH REQUESTED:          0 ISSUED:          0 USEFUL:          0 USELESS:          0
cpu0->cpu0_STLB AVERAGE MISS LATENCY: 610.8 cycles
cpu0->cpu0_L2C TOTAL        ACCESS:    3258547 HIT:    1314442 MISS:    1944105 MSHR_MERGE:     133622
cpu0->cpu0_L2C LOAD         ACCESS:    2029757 HIT:     690903 MISS:    1338854 MSHR_MERGE:      19536
cpu0->cpu0_L2C RFO          ACCESS:     149259 HIT:      43324 MISS:     105935 MSHR_MERGE:          0
cpu0->cpu0_L2C PREFETCH     ACCESS:     860561 HIT:     366878 MISS:     493683 MSHR_MERGE:     114086
cpu0->cpu0_L2C WRITE        ACCESS:     212347 HIT:     212094 MISS:        253 MSHR_MERGE:          0
cpu0->cpu0_L2C TRANSLATION  ACCESS:       6623 HIT:       1243 MISS:       5380 MSHR_MERGE:          0
cpu0->cpu0_L2C PREFETCH REQUESTED:     860561 ISSUED:     860561 USEFUL:     376579 USELESS:       1617
cpu0->cpu0_L2C AVERAGE MISS LATENCY: 57.78 cycles
cpu0->cpu0_L1I TOTAL        ACCESS:     333118 HIT:     333118 MISS:          0 MSHR_MERGE:          0
cpu0->cpu0_L1I LOAD         ACCESS:     333118 HIT:     333118 MISS:          0 MSHR_MERGE:          0
cpu0->cpu0_L1I RFO          ACCESS:          0 HIT:          0 MISS:          0 MSHR_MERGE:          0
cpu0->cpu0_L1I PREFETCH     ACCESS:          0 HIT:          0 MISS:          0 MSHR_MERGE:          0
cpu0->cpu0_L1I WRITE        ACCESS:          0 HIT:          0 MISS:          0 MSHR_MERGE:          0
cpu0->cpu0_L1I TRANSLATION  ACCESS:          0 HIT:          0 MISS:          0 MSHR_MERGE:          0
cpu0->cpu0_L1I PREFETCH REQUESTED:          0 ISSUED:          0 USEFUL:          0 USELESS:          0
cpu0->cpu0_L1I AVERAGE MISS LATENCY: - cycles
cpu0->cpu0_L1D TOTAL        ACCESS:   14140294 HIT:   11262005 MISS:    2878289 MSHR_MERGE:     692644
cpu0->cpu0_L1D LOAD         ACCESS:   10006802 HIT:    7532048 MISS:    2474754 MSHR_MERGE:     444994
cpu0->cpu0_L1D RFO          ACCESS:          0 HIT:          0 MISS:          0 MSHR_MERGE:          0
cpu0->cpu0_L1D PREFETCH     ACCESS:          0 HIT:          0 MISS:          0 MSHR_MERGE:          0
cpu0->cpu0_L1D WRITE        ACCESS:    4124294 HIT:    3727382 MISS:     396912 MSHR_MERGE:     247650
cpu0->cpu0_L1D TRANSLATION  ACCESS:       9198 HIT:       2575 MISS:       6623 MSHR_MERGE:          0
cpu0->cpu0_L1D PREFETCH REQUESTED:          0 ISSUED:          0 USEFUL:          0 USELESS:          0
cpu0->cpu0_L1D AVERAGE MISS LATENCY: 47.01 cycles
cpu0->cpu0_ITLB TOTAL        ACCESS:     306471 HIT:     306471 MISS:          0 MSHR_MERGE:          0
cpu0->cpu0_ITLB LOAD         ACCESS:     306471 HIT:     306471 MISS:          0 MSHR_MERGE:          0
cpu0->cpu0_ITLB RFO          ACCESS:          0 HIT:          0 MISS:          0 MSHR_MERGE:          0
cpu0->cpu0_ITLB PREFETCH     ACCESS:          0 HIT:          0 MISS:          0 MSHR_MERGE:          0
cpu0->cpu0_ITLB WRITE        ACCESS:          0 HIT:          0 MISS:          0 MSHR_MERGE:          0
cpu0->cpu0_ITLB TRANSLATION  ACCESS:          0 HIT:          0 MISS:          0 MSHR_MERGE:          0
cpu0->cpu0_ITLB PREFETCH REQUESTED:          0 ISSUED:          0 USEFUL:          0 USELESS:          0
cpu0->cpu0_ITLB AVERAGE MISS LATENCY: - cycles
cpu0->cpu0_DTLB TOTAL        ACCESS:   13178155 HIT:   12234506 MISS:     943649 MSHR_MERGE:     145505
cpu0->cpu0_DTLB LOAD         ACCESS:   13178155 HIT:   12234506 MISS:     943649 MSHR_MERGE:     145505
cpu0->cpu0_DTLB RFO          ACCESS:          0 HIT:          0 MISS:          0 MSHR_MERGE:          0
cpu0->cpu0_DTLB PREFETCH     ACCESS:          0 HIT:          0 MISS:          0 MSHR_MERGE:          0
cpu0->cpu0_DTLB WRITE        ACCESS:          0 HIT:          0 MISS:          0 MSHR_MERGE:          0
cpu0->cpu0_DTLB TRANSLATION  ACCESS:          0 HIT:          0 MISS:          0 MSHR_MERGE:          0
cpu0->cpu0_DTLB PREFETCH REQUESTED:          0 ISSUED:          0 USEFUL:          0 USELESS:          0
cpu0->cpu0_DTLB AVERAGE MISS LATENCY: 7.497 cycles
cpu0->LLC TOTAL        ACCESS:    1971480 HIT:    1145880 MISS:     825600 MSHR_MERGE:        412
cpu0->LLC LOAD         ACCESS:    1319318 HIT:     871509 MISS:     447809 MSHR_MERGE:         81
cpu0->LLC RFO          ACCESS:     105935 HIT:     104641 MISS:       1294 MSHR_MERGE:          0
cpu0->LLC PREFETCH     ACCESS:     379597 HIT:      12067 MISS:     367530 MSHR_MERGE:        331
cpu0->LLC WRITE        ACCESS:     161250 HIT:     157658 MISS:       3592 MSHR_MERGE:          0
cpu0->LLC TRANSLATION  ACCESS:       5380 HIT:          5 MISS:       5375 MSHR_MERGE:          0
cpu0->LLC PREFETCH REQUESTED:          0 ISSUED:          0 USEFUL:          0 USELESS:          0
cpu0->LLC AVERAGE MISS LATENCY: 128.4 cycles

DRAM Statistics

Channel 0 RQ ROW_BUFFER_HIT:     203041
  ROW_BUFFER_MISS:     618550
  AVG DBUS CONGESTED CYCLE: 16.81
Channel 0 WQ ROW_BUFFER_HIT:        845
  ROW_BUFFER_MISS:       4637
  FULL:          0
Channel 0 REFRESHES ISSUED:      10382
