[VMEM] WARNING: physical memory size is smaller than virtual memory size.
WARNING: option --warmup_instructions is deprecated. Use --warmup-instructions instead.
WARNING: option --simulation_instructions is deprecated. Use --simulation-instructions instead.

*** ChampSim Multicore Out-of-Order Simulator ***
Warmup Instructions: 20000000
Simulation Instructions: 50000000
Number of CPUs: 1
Page size: 8192

Off-chip DRAM Size: 16 GiB Channels: 1 Width: 64-bit Data Rate: 3205 MT/s
Heartbeat CPU 0 instructions: 10000002 cycles: 6070814 heartbeat IPC: 1.647 cumulative IPC: 1.647 (Simulation time: 00 hr 00 min 57 sec)
Warmup finished CPU 0 instructions: 20000000 cycles: 11996636 cumulative IPC: 1.667 (Simulation time: 00 hr 01 min 58 sec)
Warmup complete CPU 0 instructions: 20000000 cycles: 11996636 cumulative IPC: 1.667 (Simulation time: 00 hr 01 min 58 sec)
Heartbeat CPU 0 instructions: 20000004 cycles: 11996637 heartbeat IPC: 1.688 cumulative IPC: 4 (Simulation time: 00 hr 01 min 58 sec)
Heartbeat CPU 0 instructions: 30000007 cycles: 59464496 heartbeat IPC: 0.2107 cumulative IPC: 0.2107 (Simulation time: 00 hr 06 min 27 sec)
Heartbeat CPU 0 instructions: 40000009 cycles: 77274803 heartbeat IPC: 0.5615 cumulative IPC: 0.3064 (Simulation time: 00 hr 08 min 21 sec)
Heartbeat CPU 0 instructions: 50000009 cycles: 110318969 heartbeat IPC: 0.3026 cumulative IPC: 0.3051 (Simulation time: 00 hr 11 min 37 sec)
Heartbeat CPU 0 instructions: 60000010 cycles: 172674007 heartbeat IPC: 0.1604 cumulative IPC: 0.2489 (Simulation time: 00 hr 17 min 22 sec)
Simulation finished CPU 0 instructions: 50000000 cycles: 191871375 cumulative IPC: 0.2606 (Simulation time: 00 hr 20 min 27 sec)
Simulation complete CPU 0 instructions: 50000000 cycles: 191871375 cumulative IPC: 0.2606 (Simulation time: 00 hr 20 min 27 sec)

ChampSim completed all CPUs

=== Simulation ===
CPU 0 runs traces/429.mcf-217B.champsimtrace.xz

Region of Interest Statistics

CPU 0 cumulative IPC: 0.2606 instructions: 50000000 cycles: 191871375
CPU 0 Branch Prediction Accuracy: 98.95% MPKI: 1.194 Average ROB Occupancy at Mispredict: 120.1
Branch type MPKI
BRANCH_DIRECT_JUMP: 0
BRANCH_INDIRECT: 0
BRANCH_CONDITIONAL: 1.194
BRANCH_DIRECT_CALL: 0
BRANCH_INDIRECT_CALL: 0
BRANCH_RETURN: 0

cpu0->cpu0_STLB TOTAL        ACCESS:      58024 HIT:      56174 MISS:       1850 MSHR_MERGE:          0
cpu0->cpu0_STLB LOAD         ACCESS:      58024 HIT:      56174 MISS:       1850 MSHR_MERGE:          0
cpu0->cpu0_STLB RFO          ACCESS:          0 HIT:          0 MISS:          0 MSHR_MERGE:          0
cpu0->cpu0_STLB PREFETCH     ACCESS:          0 HIT:          0 MISS:          0 MSHR_MERGE:          0
cpu0->cpu0_STLB WRITE        ACCESS:          0 HIT:          0 MISS:          0 MSHR_MERGE:          0
cpu0->cpu0_STLB TRANSLATION  ACCESS:          0 HIT:          0 MISS:          0 MSHR_MERGE:          0
cpu0->cpu0_STLB PREFETCH REQUESTED:          0 ISSUED:          0 USEFUL:          0 USELESS:          0
cpu0->cpu0_STLB AVERAGE MISS LATENCY: 688.2 cycles
cpu0->cpu0_L2C TOTAL        ACCESS:    2699632 HIT:     117037 MISS:    2582595 MSHR_MERGE:          0
cpu0->cpu0_L2C LOAD         ACCESS:    2598460 HIT:      19822 MISS:    2578638 MSHR_MERGE:          0
cpu0->cpu0_L2C RFO          ACCESS:       1568 HIT:       1364 MISS:        204 MSHR_MERGE:          0
cpu0->cpu0_L2C PREFETCH     ACCESS:          0 HIT:          0 MISS:          0 MSHR_MERGE:          0
cpu0->cpu0_L2C WRITE        ACCESS:      96214 HIT:      95350 MISS:        864 MSHR_MERGE:          0
cpu0->cpu0_L2C TRANSLATION  ACCESS:       3390 HIT:        501 MISS:       2889 MSHR_MERGE:          0
cpu0->cpu0_L2C PREFETCH REQUESTED:          0 ISSUED:          0 USEFUL:          0 USELESS:          0
cpu0->cpu0_L2C AVERAGE MISS LATENCY: 130.2 cycles
cpu0->cpu0_L1I TOTAL        ACCESS:    9614767 HIT:    9614767 MISS:          0 MSHR_MERGE:          0
cpu0->cpu0_L1I LOAD         ACCESS:    9614767 HIT:    9614767 MISS:          0 MSHR_MERGE:          0
cpu0->cpu0_L1I RFO          ACCESS:          0 HIT:          0 MISS:          0 MSHR_MERGE:          0
cpu0->cpu0_L1I PREFETCH     ACCESS:          0 HIT:          0 MISS:          0 MSHR_MERGE:          0
cpu0->cpu0_L1I WRITE        ACCESS:          0 HIT:          0 MISS:          0 MSHR_MERGE:          0
cpu0->cpu0_L1I TRANSLATION  ACCESS:          0 HIT:          0 MISS:          0 MSHR_MERGE:          0
cpu0->cpu0_L1I PREFETCH REQUESTED:          0 ISSUED:          0 USEFUL:          0 USELESS:          0
cpu0->cpu0_L1I AVERAGE MISS LATENCY: - cycles
cpu0->cpu0_L1D TOTAL        ACCESS:   16528065 HIT:   13794015 MISS:    2734050 MSHR_MERGE:     130600
cpu0->cpu0_L1D LOAD         ACCESS:    8643860 HIT:    5917010 MISS:    2726850 MSHR_MERGE:     128358
cpu0->cpu0_L1D RFO          ACCESS:          0 HIT:          0 MISS:          0 MSHR_MERGE:          0
cpu0->cpu0_L1D PREFETCH     ACCESS:          0 HIT:          0 MISS:          0 MSHR_MERGE:          0
cpu0->cpu0_L1D WRITE        ACCESS:    7880498 HIT:    7876688 MISS:       3810 MSHR_MERGE:       2242
cpu0->cpu0_L1D TRANSLATION  ACCESS:       3707 HIT:        317 MISS:       3390 MSHR_MERGE:          0
cpu0->cpu0_L1D PREFETCH REQUESTED:          0 ISSUED:          0 USEFUL:          0 USELESS:          0
cpu0->cpu0_L1D AVERAGE MISS LATENCY: 138.2 cycles
cpu0->cpu0_ITLB TOTAL        ACCESS:    8445294 HIT:    8445294 MISS:          0 MSHR_MERGE:          0
cpu0->cpu0_ITLB LOAD         ACCESS:    8445294 HIT:    8445294 MISS:          0 MSHR_MERGE:          0
cpu0->cpu0_ITLB RFO          ACCESS:          0 HIT:          0 MISS:          0 MSHR_MERGE:          0
cpu0->cpu0_ITLB PREFETCH     ACCESS:          0 HIT:          0 MISS:          0 MSHR_MERGE:          0
cpu0->cpu0_ITLB WRITE        ACCESS:          0 HIT:          0 MISS:          0 MSHR_MERGE:          0
cpu0->cpu0_ITLB TRANSLATION  ACCESS:          0 HIT:          0 MISS:          0 MSHR_MERGE:          0
cpu0->cpu0_ITLB PREFETCH REQUESTED:          0 ISSUED:          0 USEFUL:          0 USELESS:          0
cpu0->cpu0_ITLB AVERAGE MISS LATENCY: - cycles
cpu0->cpu0_DTLB TOTAL        ACCESS:   14990041 HIT:   14916322 MISS:      73719 MSHR_MERGE:      15695
cpu0->cpu0_DTLB LOAD         ACCESS:   14990041 HIT:   14916322 MISS:      73719 MSHR_MERGE:      15695
cpu0->cpu0_DTLB RFO          ACCESS:          0 HIT:          0 MISS:          0 MSHR_MERGE:          0
cpu0->cpu0_DTLB PREFETCH     ACCESS:          0 HIT:          0 MISS:          0 MSHR_MERGE:          0
cpu0->cpu0_DTLB WRITE        ACCESS:          0 HIT:          0 MISS:          0 MSHR_MERGE:          0
cpu0->cpu0_DTLB TRANSLATION  ACCESS:          0 HIT:          0 MISS:          0 MSHR_MERGE:          0
cpu0->cpu0_DTLB PREFETCH REQUESTED:          0 ISSUED:          0 USEFUL:          0 USELESS:          0
cpu0->cpu0_DTLB AVERAGE MISS LATENCY: 25.97 cycles
cpu0->LLC TOTAL        ACCESS:    2662286 HIT:     716114 MISS:    1946172 MSHR_MERGE:          0
cpu0->LLC LOAD         ACCESS:    2578638 HIT:     694345 MISS:    1884293 MSHR_MERGE:          0
cpu0->LLC RFO          ACCESS:        204 HIT:        157 MISS:         47 MSHR_MERGE:          0
cpu0->LLC PREFETCH     ACCESS:          0 HIT:          0 MISS:          0 MSHR_MERGE:          0
cpu0->LLC WRITE        ACCESS:      80555 HIT:      21603 MISS:      58952 MSHR_MERGE:          0
cpu0->LLC TRANSLATION  ACCESS:       2889 HIT:          9 MISS:       2880 MSHR_MERGE:          0
cpu0->LLC PREFETCH REQUESTED:          0 ISSUED:          0 USEFUL:          0 USELESS:          0
cpu0->LLC AVERAGE MISS LATENCY: 150.9 cycles

DRAM Statistics

Channel 0 RQ ROW_BUFFER_HIT:     142343
  ROW_BUFFER_MISS:    1744781
  AVG DBUS CONGESTED CYCLE: 19.4
Channel 0 WQ ROW_BUFFER_HIT:      17964
  ROW_BUFFER_MISS:      58195
  FULL:          0
Channel 0 REFRESHES ISSUED:      15990
