[VMEM] WARNING: physical memory size is smaller than virtual memory size.
WARNING: option --warmup_instructions is deprecated. Use --warmup-instructions instead.
WARNING: option --simulation_instructions is deprecated. Use --simulation-instructions instead.

*** ChampSim Multicore Out-of-Order Simulator ***
Warmup Instructions: 20000000
Simulation Instructions: 50000000
Number of CPUs: 1
Page size: 8192

Off-chip DRAM Size: 16 GiB Channels: 1 Width: 64-bit Data Rate: 3205 MT/s
Heartbeat CPU 0 instructions: 10000001 cycles: 2973697 heartbeat IPC: 3.363 cumulative IPC: 3.363 (Simulation time: 00 hr 00 min 35 sec)
Warmup finished CPU 0 instructions: 20000000 cycles: 5935533 cumulative IPC: 3.37 (Simulation time: 00 hr 01 min 10 sec)
Warmup complete CPU 0 instructions: 20000000 cycles: 5935533 cumulative IPC: 3.37 (Simulation time: 00 hr 01 min 10 sec)
Heartbeat CPU 0 instructions: 20000004 cycles: 5935534 heartbeat IPC: 3.376 cumulative IPC: 4 (Simulation time: 00 hr 01 min 10 sec)
Heartbeat CPU 0 instructions: 30000006 cycles: 20674096 heartbeat IPC: 0.6785 cumulative IPC: 0.6785 (Simulation time: 00 hr 03 min 11 sec)
Heartbeat CPU 0 instructions: 40000009 cycles: 35440281 heartbeat IPC: 0.6772 cumulative IPC: 0.6779 (Simulation time: 00 hr 05 min 12 sec)
Heartbeat CPU 0 instructions: 50000009 cycles: 50173235 heartbeat IPC: 0.6788 cumulative IPC: 0.6782 (Simulation time: 00 hr 07 min 12 sec)
Heartbeat CPU 0 instructions: 60000012 cycles: 64909316 heartbeat IPC: 0.6786 cumulative IPC: 0.6783 (Simulation time: 00 hr 09 min 12 sec)
Simulation finished CPU 0 instructions: 50000002 cycles: 73702842 cumulative IPC: 0.6784 (Simulation time: 00 hr 11 min 12 sec)
Simulation complete CPU 0 instructions: 50000002 cycles: 73702842 cumulative IPC: 0.6784 (Simulation time: 00 hr 11 min 12 sec)

ChampSim completed all CPUs

=== Simulation ===
CPU 0 runs traces/470.lbm-1274B.champsimtrace.xz

Region of Interest Statistics

CPU 0 cumulative IPC: 0.6784 instructions: 50000002 cycles: 73702842
CPU 0 Branch Prediction Accuracy: 99.79% MPKI: 0.02864 Average ROB Occupancy at Mispredict: 189.8
Branch type MPKI
BRANCH_DIRECT_JUMP: 0
BRANCH_INDIRECT: 0
BRANCH_CONDITIONAL: 0.02864
BRANCH_DIRECT_CALL: 0
BRANCH_INDIRECT_CALL: 0
BRANCH_RETURN: 0

cpu0->cpu0_STLB TOTAL        ACCESS:      11115 HIT:       5557 MISS:       5558 MSHR_MERGE:          0
cpu0->cpu0_STLB LOAD         ACCESS:      11115 HIT:       5557 MISS:       5558 MSHR_MERGE:          0
cpu0->cpu0_STLB RFO          ACCESS:          0 HIT:          0 MISS:          0 MSHR_MERGE:          0
cpu0->cpu0_STLB PREFETCH     ACCESS:          0 HIT:          0 MISS:          0 MSHR_MERGE:          0
cpu0->cpu0_STLB WRITE        ACCESS:          0 HIT:          0 MISS:          0 MSHR_MERGE:          0
cpu0->cpu0_STLB TRANSLATION  ACCESS:          0 HIT:          0 MISS:          0 MSHR_MERGE:          0
cpu0->cpu0_STLB PREFETCH REQUESTED:          0 ISSUED:          0 USEFUL:          0 USELESS:          0
cpu0->cpu0_STLB AVERAGE MISS LATENCY: 915.3 cycles
cpu0->cpu0_L2C TOTAL        ACCESS:    4372344 HIT:    2931102 MISS:    1441242 MSHR_MERGE:          0
cpu0->cpu0_L2C LOAD         ACCESS:     355730 HIT:          0 MISS:     355730 MSHR_MERGE:          0
cpu0->cpu0_L2C RFO          ACCESS:    2002720 HIT:     925907 MISS:    1076813 MSHR_MERGE:          0
cpu0->cpu0_L2C PREFETCH     ACCESS:          0 HIT:          0 MISS:          0 MSHR_MERGE:          0
cpu0->cpu0_L2C WRITE        ACCESS:    2002766 HIT:    2002751 MISS:         15 MSHR_MERGE:          0
cpu0->cpu0_L2C TRANSLATION  ACCESS:      11128 HIT:       2444 MISS:       8684 MSHR_MERGE:          0
cpu0->cpu0_L2C PREFETCH REQUESTED:          0 ISSUED:          0 USEFUL:          0 USELESS:          0
cpu0->cpu0_L2C AVERAGE MISS LATENCY: 336.8 cycles
cpu0->cpu0_L1I TOTAL        ACCESS:    8551927 HIT:    8551927 MISS:          0 MSHR_MERGE:          0
cpu0->cpu0_L1I LOAD         ACCESS:    8551927 HIT:    8551927 MISS:          0 MSHR_MERGE:          0
cpu0->cpu0_L1I RFO          ACCESS:          0 HIT:          0 MISS:          0 MSHR_MERGE:          0
cpu0->cpu0_L1I PREFETCH     ACCESS:          0 HIT:          0 MISS:          0 MSHR_MERGE:          0
cpu0->cpu0_L1I WRITE        ACCESS:          0 HIT:          0 MISS:          0 MSHR_MERGE:          0
cpu0->cpu0_L1I TRANSLATION  ACCESS:          0 HIT:          0 MISS:          0 MSHR_MERGE:          0
cpu0->cpu0_L1I PREFETCH REQUESTED:          0 ISSUED:          0 USEFUL:          0 USELESS:          0
cpu0->cpu0_L1I AVERAGE MISS LATENCY: - cycles
cpu0->cpu0_L1D TOTAL        ACCESS:    7290157 HIT:    4801529 MISS:    2488628 MSHR_MERGE:     119005
cpu0->cpu0_L1D LOAD         ACCESS:    2255510 HIT:    1803386 MISS:     452124 MSHR_MERGE:      96394
cpu0->cpu0_L1D RFO          ACCESS:          0 HIT:          0 MISS:          0 MSHR_MERGE:          0
cpu0->cpu0_L1D PREFETCH     ACCESS:          0 HIT:          0 MISS:          0 MSHR_MERGE:          0
cpu0->cpu0_L1D WRITE        ACCESS:    5023519 HIT:    2998143 MISS:    2025376 MSHR_MERGE:      22611
cpu0->cpu0_L1D TRANSLATION  ACCESS:      11128 HIT:          0 MISS:      11128 MSHR_MERGE:          0
cpu0->cpu0_L1D PREFETCH REQUESTED:          0 ISSUED:          0 USEFUL:          0 USELESS:          0
cpu0->cpu0_L1D AVERAGE MISS LATENCY: 213.6 cycles
cpu0->cpu0_ITLB TOTAL        ACCESS:    7103881 HIT:    7103881 MISS:          0 MSHR_MERGE:          0
cpu0->cpu0_ITLB LOAD         ACCESS:    7103881 HIT:    7103881 MISS:          0 MSHR_MERGE:          0
cpu0->cpu0_ITLB RFO          ACCESS:          0 HIT:          0 MISS:          0 MSHR_MERGE:          0
cpu0->cpu0_ITLB PREFETCH     ACCESS:          0 HIT:          0 MISS:          0 MSHR_MERGE:          0
cpu0->cpu0_ITLB WRITE        ACCESS:          0 HIT:          0 MISS:          0 MSHR_MERGE:          0
cpu0->cpu0_ITLB TRANSLATION  ACCESS:          0 HIT:          0 MISS:          0 MSHR_MERGE:          0
cpu0->cpu0_ITLB PREFETCH REQUESTED:          0 ISSUED:          0 USEFUL:          0 USELESS:          0
cpu0->cpu0_ITLB AVERAGE MISS LATENCY: - cycles
cpu0->cpu0_DTLB TOTAL        ACCESS:    6788700 HIT:    6768871 MISS:      19829 MSHR_MERGE:       8714
cpu0->cpu0_DTLB LOAD         ACCESS:    6788700 HIT:    6768871 MISS:      19829 MSHR_MERGE:       8714
cpu0->cpu0_DTLB RFO          ACCESS:          0 HIT:          0 MISS:          0 MSHR_MERGE:          0
cpu0->cpu0_DTLB PREFETCH     ACCESS:          0 HIT:          0 MISS:          0 MSHR_MERGE:          0
cpu0->cpu0_DTLB WRITE        ACCESS:          0 HIT:          0 MISS:          0 MSHR_MERGE:          0
cpu0->cpu0_DTLB TRANSLATION  ACCESS:          0 HIT:          0 MISS:          0 MSHR_MERGE:          0
cpu0->cpu0_DTLB PREFETCH REQUESTED:          0 ISSUED:          0 USEFUL:          0 USELESS:          0
cpu0->cpu0_DTLB AVERAGE MISS LATENCY: 462.2 cycles
cpu0->LLC TOTAL        ACCESS:    2518362 HIT:      66455 MISS:    2451907 MSHR_MERGE:          0
cpu0->LLC LOAD         ACCESS:     355730 HIT:          0 MISS:     355730 MSHR_MERGE:          0
cpu0->LLC RFO          ACCESS:    1076813 HIT:      19252 MISS:    1057561 MSHR_MERGE:          0
cpu0->LLC PREFETCH     ACCESS:          0 HIT:          0 MISS:          0 MSHR_MERGE:          0
cpu0->LLC WRITE        ACCESS:    1077135 HIT:      47203 MISS:    1029932 MSHR_MERGE:          0
cpu0->LLC TRANSLATION  ACCESS:       8684 HIT:          0 MISS:       8684 MSHR_MERGE:          0
cpu0->LLC PREFETCH REQUESTED:          0 ISSUED:          0 USEFUL:          0 USELESS:          0
cpu0->LLC AVERAGE MISS LATENCY: 191.7 cycles

DRAM Statistics

Channel 0 RQ ROW_BUFFER_HIT:      10034
  ROW_BUFFER_MISS:    1411881
  AVG DBUS CONGESTED CYCLE: 12.11
Channel 0 WQ ROW_BUFFER_HIT:     173482
  ROW_BUFFER_MISS:     881183
  FULL:          0
Channel 0 REFRESHES ISSUED:       6142
