[VMEM] WARNING: physical memory size is smaller than virtual memory size.
WARNING: option --warmup_instructions is deprecated. Use --warmup-instructions instead.
WARNING: option --simulation_instructions is deprecated. Use --simulation-instructions instead.

*** ChampSim Multicore Out-of-Order Simulator ***
Warmup Instructions: 20000000
Simulation Instructions: 50000000
Number of CPUs: 1
Page size: 8192

Off-chip DRAM Size: 32 GiB Channels: 2 Width: 64-bit Data Rate: 3205 MT/s
Heartbeat CPU 0 instructions: 10000000 cycles: 6986127 heartbeat IPC: 1.431 cumulative IPC: 1.431 (Simulation time: 00 hr 01 min 02 sec)
Heartbeat CPU 0 instructions: 20000001 cycles: 11064106 heartbeat IPC: 2.452 cumulative IPC: 1.808 (Simulation time: 00 hr 01 min 49 sec)
Warmup finished CPU 0 instructions: 20000001 cycles: 11064106 cumulative IPC: 1.808 (Simulation time: 00 hr 01 min 49 sec)
Warmup complete CPU 0 instructions: 20000001 cycles: 11064106 cumulative IPC: 1.808 (Simulation time: 00 hr 01 min 49 sec)
Heartbeat CPU 0 instructions: 30000003 cycles: 53399400 heartbeat IPC: 0.2362 cumulative IPC: 0.2362 (Simulation time: 00 hr 05 min 02 sec)
Heartbeat CPU 0 instructions: 40000005 cycles: 95740230 heartbeat IPC: 0.2362 cumulative IPC: 0.2362 (Simulation time: 00 hr 08 min 22 sec)
Heartbeat CPU 0 instructions: 50000006 cycles: 137773100 heartbeat IPC: 0.2379 cumulative IPC: 0.2368 (Simulation time: 00 hr 11 min 42 sec)
Heartbeat CPU 0 instructions: 60000007 cycles: 179628933 heartbeat IPC: 0.2389 cumulative IPC: 0.2373 (Simulation time: 00 hr 14 min 49 sec)
Simulation finished CPU 0 instructions: 50000002 cycles: 211909112 cumulative IPC: 0.236 (Simulation time: 00 hr 18 min 02 sec)
Simulation complete CPU 0 instructions: 50000002 cycles: 211909112 cumulative IPC: 0.236 (Simulation time: 00 hr 18 min 02 sec)

ChampSim completed all CPUs

=== Simulation ===
CPU 0 runs traces/473.astar-359B.champsimtrace.xz

Region of Interest Statistics

CPU 0 cumulative IPC: 0.236 instructions: 50000002 cycles: 211909112
CPU 0 Branch Prediction Accuracy: 93.2% MPKI: 13.43 Average ROB Occupancy at Mispredict: 44.39
Branch type MPKI
BRANCH_DIRECT_JUMP: 0
BRANCH_INDIRECT: 0
BRANCH_CONDITIONAL: 13.42
BRANCH_DIRECT_CALL: 0
BRANCH_INDIRECT_CALL: 0.00054
BRANCH_RETURN: 0

cpu0->cpu0_STLB TOTAL        ACCESS:    1275605 HIT:     889340 MISS:     386265 MSHR_MERGE:          0
cpu0->cpu0_STLB LOAD         ACCESS:    1275605 HIT:     889340 MISS:     386265 MSHR_MERGE:          0
cpu0->cpu0_STLB RFO          ACCESS:          0 HIT:          0 MISS:          0 MSHR_MERGE:          0
cpu0->cpu0_STLB PREFETCH     ACCESS:          0 HIT:          0 MISS:          0 MSHR_MERGE:          0
cpu0->cpu0_STLB WRITE        ACCESS:          0 HIT:          0 MISS:          0 MSHR_MERGE:          0
cpu0->cpu0_STLB TRANSLATION  ACCESS:          0 HIT:          0 MISS:          0 MSHR_MERGE:          0
cpu0->cpu0_STLB PREFETCH REQUESTED:          0 ISSUED:          0 USEFUL:          0 USELESS:          0
cpu0->cpu0_STLB AVERAGE MISS LATENCY: 381.3 cycles
cpu0->cpu0_L2C TOTAL        ACCESS:    6086081 HIT:    2799831 MISS:    3286250 MSHR_MERGE:      89141
cpu0->cpu0_L2C LOAD         ACCESS:    1775428 HIT:     908102 MISS:     867326 MSHR_MERGE:      41557
cpu0->cpu0_L2C RFO          ACCESS:     767630 HIT:      42994 MISS:     724636 MSHR_MERGE:          0
cpu0->cpu0_L2C PREFETCH     ACCESS:    1724342 HIT:     674501 MISS:    1049841 MSHR_MERGE:      47584
cpu0->cpu0_L2C WRITE        ACCESS:    1168866 HIT:    1168617 MISS:        249 MSHR_MERGE:          0
cpu0->cpu0_L2C TRANSLATION  ACCESS:     649815 HIT:       5617 MISS:     644198 MSHR_MERGE:          0
cpu0->cpu0_L2C PREFETCH REQUESTED:    1724342 ISSUED:    1724342 USEFUL:     306275 USELESS:     697300
cpu0->cpu0_L2C AVERAGE MISS LATENCY: 158.8 cycles
cpu0->cpu0_L1I TOTAL        ACCESS:     832196 HIT:     832189 MISS:          7 MSHR_MERGE:          0
cpu0->cpu0_L1I LOAD         ACCESS:     832196 HIT:     832189 MISS:          7 MSHR_MERGE:          0
cpu0->cpu0_L1I RFO          ACCESS:          0 HIT:          0 MISS:          0 MSHR_MERGE:          0
cpu0->cpu0_L1I PREFETCH     ACCESS:          0 HIT:          0 MISS:          0 MSHR_MERGE:          0
cpu0->cpu0_L1I WRITE        ACCESS:          0 HIT:          0 MISS:          0 MSHR_MERGE:          0
cpu0->cpu0_L1I TRANSLATION  ACCESS:          0 HIT:          0 MISS:          0 MSHR_MERGE:          0
cpu0->cpu0_L1I PREFETCH REQUESTED:          0 ISSUED:          0 USEFUL:          0 USELESS:          0
cpu0->cpu0_L1I AVERAGE MISS LATENCY: 128.1 cycles
cpu0->cpu0_L1D TOTAL        ACCESS:   19872101 HIT:   15961027 MISS:    3911074 MSHR_MERGE:     718204
cpu0->cpu0_L1D LOAD         ACCESS:   12781438 HIT:   10379717 MISS:    2401721 MSHR_MERGE:     626298
cpu0->cpu0_L1D RFO          ACCESS:          0 HIT:          0 MISS:          0 MSHR_MERGE:          0
cpu0->cpu0_L1D PREFETCH     ACCESS:          0 HIT:          0 MISS:          0 MSHR_MERGE:          0
cpu0->cpu0_L1D WRITE        ACCESS:    6314509 HIT:    5546790 MISS:     767719 MSHR_MERGE:         87
cpu0->cpu0_L1D TRANSLATION  ACCESS:     776154 HIT:      34520 MISS:     741634 MSHR_MERGE:      91819
cpu0->cpu0_L1D PREFETCH REQUESTED:          0 ISSUED:          0 USEFUL:          0 USELESS:          0
cpu0->cpu0_L1D AVERAGE MISS LATENCY: 120.2 cycles
cpu0->cpu0_ITLB TOTAL        ACCESS:     829895 HIT:     829895 MISS:          0 MSHR_MERGE:          0
cpu0->cpu0_ITLB LOAD         ACCESS:     829895 HIT:     829895 MISS:          0 MSHR_MERGE:          0
cpu0->cpu0_ITLB RFO          ACCESS:          0 HIT:          0 MISS:          0 MSHR_MERGE:          0
cpu0->cpu0_ITLB PREFETCH     ACCESS:          0 HIT:          0 MISS:          0 MSHR_MERGE:          0
cpu0->cpu0_ITLB WRITE        ACCESS:          0 HIT:          0 MISS:          0 MSHR_MERGE:          0
cpu0->cpu0_ITLB TRANSLATION  ACCESS:          0 HIT:          0 MISS:          0 MSHR_MERGE:          0
cpu0->cpu0_ITLB PREFETCH REQUESTED:          0 ISSUED:          0 USEFUL:          0 USELESS:          0
cpu0->cpu0_ITLB AVERAGE MISS LATENCY: - cycles
cpu0->cpu0_DTLB TOTAL        ACCESS:   18157315 HIT:   16282145 MISS:    1875170 MSHR_MERGE:     599565
cpu0->cpu0_DTLB LOAD         ACCESS:   18157315 HIT:   16282145 MISS:    1875170 MSHR_MERGE:     599565
cpu0->cpu0_DTLB RFO          ACCESS:          0 HIT:          0 MISS:          0 MSHR_MERGE:          0
cpu0->cpu0_DTLB PREFETCH     ACCESS:          0 HIT:          0 MISS:          0 MSHR_MERGE:          0
cpu0->cpu0_DTLB WRITE        ACCESS:          0 HIT:          0 MISS:          0 MSHR_MERGE:          0
cpu0->cpu0_DTLB TRANSLATION  ACCESS:          0 HIT:          0 MISS:          0 MSHR_MERGE:          0
cpu0->cpu0_DTLB PREFETCH REQUESTED:          0 ISSUED:          0 USEFUL:          0 USELESS:          0
cpu0->cpu0_DTLB AVERAGE MISS LATENCY: 119.8 cycles
cpu0->LLC TOTAL        ACCESS:    4323327 HIT:    1068813 MISS:    3254514 MSHR_MERGE:          0
cpu0->LLC LOAD         ACCESS:     825769 HIT:     245768 MISS:     580001 MSHR_MERGE:          0
cpu0->LLC RFO          ACCESS:     724635 HIT:     226939 MISS:     497696 MSHR_MERGE:          0
cpu0->LLC PREFETCH     ACCESS:    1002256 HIT:      99994 MISS:     902262 MSHR_MERGE:          0
cpu0->LLC WRITE        ACCESS:    1126469 HIT:     427047 MISS:     699422 MSHR_MERGE:          0
cpu0->LLC TRANSLATION  ACCESS:     644198 HIT:      69065 MISS:     575133 MSHR_MERGE:          0
cpu0->LLC PREFETCH REQUESTED:          0 ISSUED:          0 USEFUL:          0 USELESS:          0
cpu0->LLC AVERAGE MISS LATENCY: 135.4 cycles

DRAM Statistics

Channel 0 RQ ROW_BUFFER_HIT:      23920
  ROW_BUFFER_MISS:    1254989
  AVG DBUS CONGESTED CYCLE: 19.89
Channel 0 WQ ROW_BUFFER_HIT:      53236
  ROW_BUFFER_MISS:     325572
  FULL:         57
Channel 0 REFRESHES ISSUED:      17659

Channel 1 RQ ROW_BUFFER_HIT:      23922
  ROW_BUFFER_MISS:    1252029
  AVG DBUS CONGESTED CYCLE: 19.89
Channel 1 WQ ROW_BUFFER_HIT:      52377
  ROW_BUFFER_MISS:     322379
  FULL:        108
Channel 1 REFRESHES ISSUED:      17659
