[VMEM] WARNING: physical memory size is smaller than virtual memory size.
WARNING: option --warmup_instructions is deprecated. Use --warmup-instructions instead.
WARNING: option --simulation_instructions is deprecated. Use --simulation-instructions instead.

*** ChampSim Multicore Out-of-Order Simulator ***
Warmup Instructions: 20000000
Simulation Instructions: 50000000
Number of CPUs: 1
Page size: 8192

Off-chip DRAM Size: 32 GiB Channels: 2 Width: 64-bit Data Rate: 3205 MT/s
Heartbeat CPU 0 instructions: 10000001 cycles: 4633996 heartbeat IPC: 2.158 cumulative IPC: 2.158 (Simulation time: 00 hr 00 min 48 sec)
Heartbeat CPU 0 instructions: 20000002 cycles: 9214641 heartbeat IPC: 2.183 cumulative IPC: 2.17 (Simulation time: 00 hr 01 min 37 sec)
Warmup finished CPU 0 instructions: 20000002 cycles: 9214641 cumulative IPC: 2.17 (Simulation time: 00 hr 01 min 37 sec)
Warmup complete CPU 0 instructions: 20000002 cycles: 9214641 cumulative IPC: 2.17 (Simulation time: 00 hr 01 min 37 sec)
Heartbeat CPU 0 instructions: 30000005 cycles: 37480904 heartbeat IPC: 0.3538 cumulative IPC: 0.3538 (Simulation time: 00 hr 03 min 38 sec)
Heartbeat CPU 0 instructions: 40000005 cycles: 65546034 heartbeat IPC: 0.3563 cumulative IPC: 0.355 (Simulation time: 00 hr 05 min 41 sec)
Heartbeat CPU 0 instructions: 50000007 cycles: 93980339 heartbeat IPC: 0.3517 cumulative IPC: 0.3539 (Simulation time: 00 hr 07 min 47 sec)
Heartbeat CPU 0 instructions: 60000007 cycles: 122165655 heartbeat IPC: 0.3548 cumulative IPC: 0.3541 (Simulation time: 00 hr 09 min 51 sec)
Simulation finished CPU 0 instructions: 50000002 cycles: 141515921 cumulative IPC: 0.3533 (Simulation time: 00 hr 11 min 55 sec)
Simulation complete CPU 0 instructions: 50000002 cycles: 141515921 cumulative IPC: 0.3533 (Simulation time: 00 hr 11 min 55 sec)

ChampSim completed all CPUs

=== Simulation ===
CPU 0 runs traces/605.mcf_s-1152B.champsimtrace.xz

Region of Interest Statistics

CPU 0 cumulative IPC: 0.3533 instructions: 50000002 cycles: 141515921
CPU 0 Branch Prediction Accuracy: 90.19% MPKI: 24.48 Average ROB Occupancy at Mispredict: 21.41
Branch type MPKI
BRANCH_DIRECT_JUMP: 0.2057
BRANCH_INDIRECT: 0
BRANCH_CONDITIONAL: 24.27
BRANCH_DIRECT_CALL: 0
BRANCH_INDIRECT_CALL: 0.0036
BRANCH_RETURN: 2e-05

cpu0->cpu0_STLB TOTAL        ACCESS:    1006193 HIT:    1000436 MISS:       5757 MSHR_MERGE:          0
cpu0->cpu0_STLB LOAD         ACCESS:    1006193 HIT:    1000436 MISS:       5757 MSHR_MERGE:          0
cpu0->cpu0_STLB RFO          ACCESS:          0 HIT:          0 MISS:          0 MSHR_MERGE:          0
cpu0->cpu0_STLB PREFETCH     ACCESS:          0 HIT:          0 MISS:          0 MSHR_MERGE:          0
cpu0->cpu0_STLB WRITE        ACCESS:          0 HIT:          0 MISS:          0 MSHR_MERGE:          0
cpu0->cpu0_STLB TRANSLATION  ACCESS:          0 HIT:          0 MISS:          0 MSHR_MERGE:          0
cpu0->cpu0_STLB PREFETCH REQUESTED:          0 ISSUED:          0 USEFUL:          0 USELESS:          0
cpu0->cpu0_STLB AVERAGE MISS LATENCY: 611.1 cycles
cpu0->cpu0_L2C TOTAL        ACCESS:    5516248 HIT:    1685567 MISS:    3830681 MSHR_MERGE:     189446
cpu0->cpu0_L2C LOAD         ACCESS:    2552732 HIT:     999233 MISS:    1553499 MSHR_MERGE:     139658
cpu0->cpu0_L2C RFO          ACCESS:     187385 HIT:      37580 MISS:     149805 MSHR_MERGE:          5
cpu0->cpu0_L2C PREFETCH     ACCESS:    2502025 HIT:     382070 MISS:    2119955 MSHR_MERGE:      49783
cpu0->cpu0_L2C WRITE        ACCESS:     265756 HIT:     265201 MISS:        555 MSHR_MERGE:          0
cpu0->cpu0_L2C TRANSLATION  ACCESS:       8350 HIT:       1483 MISS:       6867 MSHR_MERGE:          0
cpu0->cpu0_L2C PREFETCH REQUESTED:    2502026 ISSUED:    2502026 USEFUL:     782413 USELESS:    1287775
cpu0->cpu0_L2C AVERAGE MISS LATENCY: 51.96 cycles
cpu0->cpu0_L1I TOTAL        ACCESS:     433780 HIT:     433780 MISS:          0 MSHR_MERGE:          0
cpu0->cpu0_L1I LOAD         ACCESS:     433780 HIT:     433780 MISS:          0 MSHR_MERGE:          0
cpu0->cpu0_L1I RFO          ACCESS:          0 HIT:          0 MISS:          0 MSHR_MERGE:          0
cpu0->cpu0_L1I PREFETCH     ACCESS:          0 HIT:          0 MISS:          0 MSHR_MERGE:          0
cpu0->cpu0_L1I WRITE        ACCESS:          0 HIT:          0 MISS:          0 MSHR_MERGE:          0
cpu0->cpu0_L1I TRANSLATION  ACCESS:          0 HIT:          0 MISS:          0 MSHR_MERGE:          0
cpu0->cpu0_L1I PREFETCH REQUESTED:          0 ISSUED:          0 USEFUL:          0 USELESS:          0
cpu0->cpu0_L1I AVERAGE MISS LATENCY: - cycles
cpu0->cpu0_L1D TOTAL        ACCESS:   17980038 HIT:   14389336 MISS:    3590702 MSHR_MERGE:     842231
cpu0->cpu0_L1D LOAD         ACCESS:   12804138 HIT:    9721041 MISS:    3083097 MSHR_MERGE:     530364
cpu0->cpu0_L1D RFO          ACCESS:          0 HIT:          0 MISS:          0 MSHR_MERGE:          0
cpu0->cpu0_L1D PREFETCH     ACCESS:          0 HIT:          0 MISS:          0 MSHR_MERGE:          0
cpu0->cpu0_L1D WRITE        ACCESS:    5164290 HIT:    4665035 MISS:     499255 MSHR_MERGE:     311867
cpu0->cpu0_L1D TRANSLATION  ACCESS:      11610 HIT:       3260 MISS:       8350 MSHR_MERGE:          0
cpu0->cpu0_L1D PREFETCH REQUESTED:          0 ISSUED:          0 USEFUL:          0 USELESS:          0
cpu0->cpu0_L1D AVERAGE MISS LATENCY: 40.97 cycles
cpu0->cpu0_ITLB TOTAL        ACCESS:     402044 HIT:     402044 MISS:          0 MSHR_MERGE:          0
cpu0->cpu0_ITLB LOAD         ACCESS:     402044 HIT:     402044 MISS:          0 MSHR_MERGE:          0
cpu0->cpu0_ITLB RFO          ACCESS:          0 HIT:          0 MISS:          0 MSHR_MERGE:          0
cpu0->cpu0_ITLB PREFETCH     ACCESS:          0 HIT:          0 MISS:          0 MSHR_MERGE:          0
cpu0->cpu0_ITLB WRITE        ACCESS:          0 HIT:          0 MISS:          0 MSHR_MERGE:          0
cpu0->cpu0_ITLB TRANSLATION  ACCESS:          0 HIT:          0 MISS:          0 MSHR_MERGE:          0
cpu0->cpu0_ITLB PREFETCH REQUESTED:          0 ISSUED:          0 USEFUL:          0 USELESS:          0
cpu0->cpu0_ITLB AVERAGE MISS LATENCY: - cycles
cpu0->cpu0_DTLB TOTAL        ACCESS:   16840897 HIT:   15648115 MISS:    1192782 MSHR_MERGE:     186589
cpu0->cpu0_DTLB LOAD         ACCESS:   16840897 HIT:   15648115 MISS:    1192782 MSHR_MERGE:     186589
cpu0->cpu0_DTLB RFO          ACCESS:          0 HIT:          0 MISS:          0 MSHR_MERGE:          0
cpu0->cpu0_DTLB PREFETCH     ACCESS:          0 HIT:          0 MISS:          0 MSHR_MERGE:          0
cpu0->cpu0_DTLB WRITE        ACCESS:          0 HIT:          0 MISS:          0 MSHR_MERGE:          0
cpu0->cpu0_DTLB TRANSLATION  ACCESS:          0 HIT:          0 MISS:          0 MSHR_MERGE:          0
cpu0->cpu0_DTLB PREFETCH REQUESTED:          0 ISSUED:          0 USEFUL:          0 USELESS:          0
cpu0->cpu0_DTLB AVERAGE MISS LATENCY: 7.502 cycles
cpu0->LLC TOTAL        ACCESS:    3853474 HIT:    2303128 MISS:    1550346 MSHR_MERGE:          0
cpu0->LLC LOAD         ACCESS:    1413840 HIT:    1050975 MISS:     362865 MSHR_MERGE:          0
cpu0->LLC RFO          ACCESS:     149800 HIT:     142509 MISS:       7291 MSHR_MERGE:          0
cpu0->LLC PREFETCH     ACCESS:    2070172 HIT:     906242 MISS:    1163930 MSHR_MERGE:          0
cpu0->LLC WRITE        ACCESS:     212795 HIT:     203377 MISS:       9418 MSHR_MERGE:          0
cpu0->LLC TRANSLATION  ACCESS:       6867 HIT:         25 MISS:       6842 MSHR_MERGE:          0
cpu0->LLC PREFETCH REQUESTED:          0 ISSUED:          0 USEFUL:          0 USELESS:          0
cpu0->LLC AVERAGE MISS LATENCY: 133.6 cycles

DRAM Statistics

Channel 0 RQ ROW_BUFFER_HIT:      30194
  ROW_BUFFER_MISS:     743341
  AVG DBUS CONGESTED CYCLE: 17.76
Channel 0 WQ ROW_BUFFER_HIT:       1337
  ROW_BUFFER_MISS:       6232
  FULL:          0
Channel 0 REFRESHES ISSUED:      11793

Channel 1 RQ ROW_BUFFER_HIT:      30559
  ROW_BUFFER_MISS:     736824
  AVG DBUS CONGESTED CYCLE: 17.76
Channel 1 WQ ROW_BUFFER_HIT:       1353
  ROW_BUFFER_MISS:       5944
  FULL:          0
Channel 1 REFRESHES ISSUED:      11793
