[VMEM] WARNING: physical memory size is smaller than virtual memory size.
WARNING: option --warmup_instructions is deprecated. Use --warmup-instructions instead.
WARNING: option --simulation_instructions is deprecated. Use --simulation-instructions instead.

*** ChampSim Multicore Out-of-Order Simulator ***
Warmup Instructions: 20000000
Simulation Instructions: 50000000
Number of CPUs: 1
Page size: 8192

Off-chip DRAM Size: 32 GiB Channels: 2 Width: 64-bit Data Rate: 3205 MT/s
Heartbeat CPU 0 instructions: 10000001 cycles: 2973627 heartbeat IPC: 3.363 cumulative IPC: 3.363 (Simulation time: 00 hr 00 min 31 sec)
Warmup finished CPU 0 instructions: 20000000 cycles: 5935800 cumulative IPC: 3.369 (Simulation time: 00 hr 01 min 01 sec)
Warmup complete CPU 0 instructions: 20000000 cycles: 5935800 cumulative IPC: 3.369 (Simulation time: 00 hr 01 min 01 sec)
Heartbeat CPU 0 instructions: 20000004 cycles: 5935801 heartbeat IPC: 3.376 cumulative IPC: 4 (Simulation time: 00 hr 01 min 01 sec)
Heartbeat CPU 0 instructions: 30000006 cycles: 13042818 heartbeat IPC: 1.407 cumulative IPC: 1.407 (Simulation time: 00 hr 02 min 17 sec)
Heartbeat CPU 0 instructions: 40000009 cycles: 20192269 heartbeat IPC: 1.399 cumulative IPC: 1.403 (Simulation time: 00 hr 03 min 34 sec)
Heartbeat CPU 0 instructions: 50000009 cycles: 27316575 heartbeat IPC: 1.404 cumulative IPC: 1.403 (Simulation time: 00 hr 04 min 51 sec)
Heartbeat CPU 0 instructions: 60000011 cycles: 34455945 heartbeat IPC: 1.401 cumulative IPC: 1.403 (Simulation time: 00 hr 06 min 08 sec)
Simulation finished CPU 0 instructions: 50000002 cycles: 35611072 cumulative IPC: 1.404 (Simulation time: 00 hr 07 min 23 sec)
Simulation complete CPU 0 instructions: 50000002 cycles: 35611072 cumulative IPC: 1.404 (Simulation time: 00 hr 07 min 23 sec)

ChampSim completed all CPUs

=== Simulation ===
CPU 0 runs traces/470.lbm-1274B.champsimtrace.xz

Region of Interest Statistics

CPU 0 cumulative IPC: 1.404 instructions: 50000002 cycles: 35611072
CPU 0 Branch Prediction Accuracy: 99.79% MPKI: 0.02864 Average ROB Occupancy at Mispredict: 189.9
Branch type MPKI
BRANCH_DIRECT_JUMP: 0
BRANCH_INDIRECT: 0
BRANCH_CONDITIONAL: 0.02864
BRANCH_DIRECT_CALL: 0
BRANCH_INDIRECT_CALL: 0
BRANCH_RETURN: 0

cpu0->cpu0_STLB TOTAL        ACCESS:      11115 HIT:       5557 MISS:       5558 MSHR_MERGE:          0
cpu0->cpu0_STLB LOAD         ACCESS:      11115 HIT:       5557 MISS:       5558 MSHR_MERGE:          0
cpu0->cpu0_STLB RFO          ACCESS:          0 HIT:          0 MISS:          0 MSHR_MERGE:          0
cpu0->cpu0_STLB PREFETCH     ACCESS:          0 HIT:          0 MISS:          0 MSHR_MERGE:          0
cpu0->cpu0_STLB WRITE        ACCESS:          0 HIT:          0 MISS:          0 MSHR_MERGE:          0
cpu0->cpu0_STLB TRANSLATION  ACCESS:          0 HIT:          0 MISS:          0 MSHR_MERGE:          0
cpu0->cpu0_STLB PREFETCH REQUESTED:          0 ISSUED:          0 USEFUL:          0 USELESS:          0
cpu0->cpu0_STLB AVERAGE MISS LATENCY: 882.7 cycles
cpu0->cpu0_L2C TOTAL        ACCESS:    4860178 HIT:    3356242 MISS:    1503936 MSHR_MERGE:      63006
cpu0->cpu0_L2C LOAD         ACCESS:     355730 HIT:     277187 MISS:      78543 MSHR_MERGE:      39311
cpu0->cpu0_L2C RFO          ACCESS:    2002631 HIT:     926167 MISS:    1076464 MSHR_MERGE:          0
cpu0->cpu0_L2C PREFETCH     ACCESS:     487939 HIT:     147709 MISS:     340230 MSHR_MERGE:      23695
cpu0->cpu0_L2C WRITE        ACCESS:    2002750 HIT:    2002735 MISS:         15 MSHR_MERGE:          0
cpu0->cpu0_L2C TRANSLATION  ACCESS:      11128 HIT:       2444 MISS:       8684 MSHR_MERGE:          0
cpu0->cpu0_L2C PREFETCH REQUESTED:     487940 ISSUED:     487939 USEFUL:     316498 USELESS:         40
cpu0->cpu0_L2C AVERAGE MISS LATENCY: 261.8 cycles
cpu0->cpu0_L1I TOTAL        ACCESS:    8526410 HIT:    8526410 MISS:          0 MSHR_MERGE:          0
cpu0->cpu0_L1I LOAD         ACCESS:    8526410 HIT:    8526410 MISS:          0 MSHR_MERGE:          0
cpu0->cpu0_L1I RFO          ACCESS:          0 HIT:          0 MISS:          0 MSHR_MERGE:          0
cpu0->cpu0_L1I PREFETCH     ACCESS:          0 HIT:          0 MISS:          0 MSHR_MERGE:          0
cpu0->cpu0_L1I WRITE        ACCESS:          0 HIT:          0 MISS:          0 MSHR_MERGE:          0
cpu0->cpu0_L1I TRANSLATION  ACCESS:          0 HIT:          0 MISS:          0 MSHR_MERGE:          0
cpu0->cpu0_L1I PREFETCH REQUESTED:          0 ISSUED:          0 USEFUL:          0 USELESS:          0
cpu0->cpu0_L1I AVERAGE MISS LATENCY: - cycles
cpu0->cpu0_L1D TOTAL        ACCESS:    7264958 HIT:    4814331 MISS:    2450627 MSHR_MERGE:      81014
cpu0->cpu0_L1D LOAD         ACCESS:    2230311 HIT:    1847247 MISS:     383064 MSHR_MERGE:      27334
cpu0->cpu0_L1D RFO          ACCESS:          0 HIT:          0 MISS:          0 MSHR_MERGE:          0
cpu0->cpu0_L1D PREFETCH     ACCESS:          0 HIT:          0 MISS:          0 MSHR_MERGE:          0
cpu0->cpu0_L1D WRITE        ACCESS:    5023519 HIT:    2967084 MISS:    2056435 MSHR_MERGE:      53680
cpu0->cpu0_L1D TRANSLATION  ACCESS:      11128 HIT:          0 MISS:      11128 MSHR_MERGE:          0
cpu0->cpu0_L1D PREFETCH REQUESTED:          0 ISSUED:          0 USEFUL:          0 USELESS:          0
cpu0->cpu0_L1D AVERAGE MISS LATENCY: 145 cycles
cpu0->cpu0_ITLB TOTAL        ACCESS:    7004368 HIT:    7004368 MISS:          0 MSHR_MERGE:          0
cpu0->cpu0_ITLB LOAD         ACCESS:    7004368 HIT:    7004368 MISS:          0 MSHR_MERGE:          0
cpu0->cpu0_ITLB RFO          ACCESS:          0 HIT:          0 MISS:          0 MSHR_MERGE:          0
cpu0->cpu0_ITLB PREFETCH     ACCESS:          0 HIT:          0 MISS:          0 MSHR_MERGE:          0
cpu0->cpu0_ITLB WRITE        ACCESS:          0 HIT:          0 MISS:          0 MSHR_MERGE:          0
cpu0->cpu0_ITLB TRANSLATION  ACCESS:          0 HIT:          0 MISS:          0 MSHR_MERGE:          0
cpu0->cpu0_ITLB PREFETCH REQUESTED:          0 ISSUED:          0 USEFUL:          0 USELESS:          0
cpu0->cpu0_ITLB AVERAGE MISS LATENCY: - cycles
cpu0->cpu0_DTLB TOTAL        ACCESS:    6773372 HIT:    6748474 MISS:      24898 MSHR_MERGE:      13783
cpu0->cpu0_DTLB LOAD         ACCESS:    6773372 HIT:    6748474 MISS:      24898 MSHR_MERGE:      13783
cpu0->cpu0_DTLB RFO          ACCESS:          0 HIT:          0 MISS:          0 MSHR_MERGE:          0
cpu0->cpu0_DTLB PREFETCH     ACCESS:          0 HIT:          0 MISS:          0 MSHR_MERGE:          0
cpu0->cpu0_DTLB WRITE        ACCESS:          0 HIT:          0 MISS:          0 MSHR_MERGE:          0
cpu0->cpu0_DTLB TRANSLATION  ACCESS:          0 HIT:          0 MISS:          0 MSHR_MERGE:          0
cpu0->cpu0_DTLB PREFETCH REQUESTED:          0 ISSUED:          0 USEFUL:          0 USELESS:          0
cpu0->cpu0_DTLB AVERAGE MISS LATENCY: 445.9 cycles
cpu0->LLC TOTAL        ACCESS:    2517217 HIT:      64015 MISS:    2453202 MSHR_MERGE:          0
cpu0->LLC LOAD         ACCESS:      39232 HIT:          0 MISS:      39232 MSHR_MERGE:          0
cpu0->LLC RFO          ACCESS:    1076463 HIT:      19041 MISS:    1057422 MSHR_MERGE:          0
cpu0->LLC PREFETCH     ACCESS:     316535 HIT:          0 MISS:     316535 MSHR_MERGE:          0
cpu0->LLC WRITE        ACCESS:    1076303 HIT:      44974 MISS:    1031329 MSHR_MERGE:          0
cpu0->LLC TRANSLATION  ACCESS:       8684 HIT:          0 MISS:       8684 MSHR_MERGE:          0
cpu0->LLC PREFETCH REQUESTED:          0 ISSUED:          0 USEFUL:          0 USELESS:          0
cpu0->LLC AVERAGE MISS LATENCY: 135.5 cycles

DRAM Statistics

Channel 0 RQ ROW_BUFFER_HIT:       5593
  ROW_BUFFER_MISS:     705246
  AVG DBUS CONGESTED CYCLE: 11.65
Channel 0 WQ ROW_BUFFER_HIT:      73019
  ROW_BUFFER_MISS:     453616
  FULL:        595
Channel 0 REFRESHES ISSUED:       2968

Channel 1 RQ ROW_BUFFER_HIT:       5594
  ROW_BUFFER_MISS:     705298
  AVG DBUS CONGESTED CYCLE: 11.63
Channel 1 WQ ROW_BUFFER_HIT:      72955
  ROW_BUFFER_MISS:     453751
  FULL:        955
Channel 1 REFRESHES ISSUED:       2968
