[VMEM] WARNING: physical memory size is smaller than virtual memory size.
WARNING: option --warmup_instructions is deprecated. Use --warmup-instructions instead.
WARNING: option --simulation_instructions is deprecated. Use --simulation-instructions instead.

*** ChampSim Multicore Out-of-Order Simulator ***
Warmup Instructions: 20000000
Simulation Instructions: 50000000
Number of CPUs: 1
Page size: 8192

Off-chip DRAM Size: 16 GiB Channels: 1 Width: 64-bit Data Rate: 3205 MT/s
Heartbeat CPU 0 instructions: 10000002 cycles: 7626471 heartbeat IPC: 1.311 cumulative IPC: 1.311 (Simulation time: 00 hr 01 min 12 sec)
Warmup finished CPU 0 instructions: 20000000 cycles: 14271959 cumulative IPC: 1.401 (Simulation time: 00 hr 02 min 17 sec)
Warmup complete CPU 0 instructions: 20000000 cycles: 14271959 cumulative IPC: 1.401 (Simulation time: 00 hr 02 min 17 sec)
Heartbeat CPU 0 instructions: 20000004 cycles: 14271960 heartbeat IPC: 1.505 cumulative IPC: 4 (Simulation time: 00 hr 02 min 17 sec)
Heartbeat CPU 0 instructions: 30000006 cycles: 42765225 heartbeat IPC: 0.351 cumulative IPC: 0.351 (Simulation time: 00 hr 04 min 28 sec)
Heartbeat CPU 0 instructions: 40000008 cycles: 71417390 heartbeat IPC: 0.349 cumulative IPC: 0.35 (Simulation time: 00 hr 06 min 42 sec)
Heartbeat CPU 0 instructions: 50000008 cycles: 100131179 heartbeat IPC: 0.3483 cumulative IPC: 0.3494 (Simulation time: 00 hr 08 min 59 sec)
Heartbeat CPU 0 instructions: 60000011 cycles: 127501034 heartbeat IPC: 0.3654 cumulative IPC: 0.3533 (Simulation time: 00 hr 11 min 09 sec)
Simulation finished CPU 0 instructions: 50000000 cycles: 139668443 cumulative IPC: 0.358 (Simulation time: 00 hr 13 min 15 sec)
Simulation complete CPU 0 instructions: 50000000 cycles: 139668443 cumulative IPC: 0.358 (Simulation time: 00 hr 13 min 15 sec)

ChampSim completed all CPUs

=== Simulation ===
CPU 0 runs traces/620.omnetpp_s-874B.champsimtrace.xz

Region of Interest Statistics

CPU 0 cumulative IPC: 0.358 instructions: 50000000 cycles: 139668443
CPU 0 Branch Prediction Accuracy: 96.16% MPKI: 7.99 Average ROB Occupancy at Mispredict: 65.64
Branch type MPKI
BRANCH_DIRECT_JUMP: 0.9384
BRANCH_INDIRECT: 0.1208
BRANCH_CONDITIONAL: 5.805
BRANCH_DIRECT_CALL: 0.00236
BRANCH_INDIRECT_CALL: 0.7298
BRANCH_RETURN: 0.3936

cpu0->cpu0_STLB TOTAL        ACCESS:     827972 HIT:     690878 MISS:     137094 MSHR_MERGE:          0
cpu0->cpu0_STLB LOAD         ACCESS:     827972 HIT:     690878 MISS:     137094 MSHR_MERGE:          0
cpu0->cpu0_STLB RFO          ACCESS:          0 HIT:          0 MISS:          0 MSHR_MERGE:          0
cpu0->cpu0_STLB PREFETCH     ACCESS:          0 HIT:          0 MISS:          0 MSHR_MERGE:          0
cpu0->cpu0_STLB WRITE        ACCESS:          0 HIT:          0 MISS:          0 MSHR_MERGE:          0
cpu0->cpu0_STLB TRANSLATION  ACCESS:          0 HIT:          0 MISS:          0 MSHR_MERGE:          0
cpu0->cpu0_STLB PREFETCH REQUESTED:          0 ISSUED:          0 USEFUL:          0 USELESS:          0
cpu0->cpu0_STLB AVERAGE MISS LATENCY: 339.2 cycles
cpu0->cpu0_L2C TOTAL        ACCESS:    3134473 HIT:    1357629 MISS:    1776844 MSHR_MERGE:     121398
cpu0->cpu0_L2C LOAD         ACCESS:     933790 HIT:     358945 MISS:     574845 MSHR_MERGE:      22218
cpu0->cpu0_L2C RFO          ACCESS:     139327 HIT:      57895 MISS:      81432 MSHR_MERGE:       2421
cpu0->cpu0_L2C PREFETCH     ACCESS:    1259522 HIT:     419528 MISS:     839994 MSHR_MERGE:      96759
cpu0->cpu0_L2C WRITE        ACCESS:     508941 HIT:     504597 MISS:       4344 MSHR_MERGE:          0
cpu0->cpu0_L2C TRANSLATION  ACCESS:     292893 HIT:      16664 MISS:     276229 MSHR_MERGE:          0
cpu0->cpu0_L2C PREFETCH REQUESTED:    1259531 ISSUED:    1259522 USEFUL:     176290 USELESS:     567251
cpu0->cpu0_L2C AVERAGE MISS LATENCY: 138.7 cycles
cpu0->cpu0_L1I TOTAL        ACCESS:    7903583 HIT:    7878195 MISS:      25388 MSHR_MERGE:       6910
cpu0->cpu0_L1I LOAD         ACCESS:    7903583 HIT:    7878195 MISS:      25388 MSHR_MERGE:       6910
cpu0->cpu0_L1I RFO          ACCESS:          0 HIT:          0 MISS:          0 MSHR_MERGE:          0
cpu0->cpu0_L1I PREFETCH     ACCESS:          0 HIT:          0 MISS:          0 MSHR_MERGE:          0
cpu0->cpu0_L1I WRITE        ACCESS:          0 HIT:          0 MISS:          0 MSHR_MERGE:          0
cpu0->cpu0_L1I TRANSLATION  ACCESS:          0 HIT:          0 MISS:          0 MSHR_MERGE:          0
cpu0->cpu0_L1I PREFETCH REQUESTED:          0 ISSUED:          0 USEFUL:          0 USELESS:          0
cpu0->cpu0_L1I AVERAGE MISS LATENCY: 25.88 cycles
cpu0->cpu0_L1D TOTAL        ACCESS:   18701932 HIT:   16959494 MISS:    1742438 MSHR_MERGE:     394892
cpu0->cpu0_L1D LOAD         ACCESS:    9362347 HIT:    8257569 MISS:    1104778 MSHR_MERGE:     189463
cpu0->cpu0_L1D RFO          ACCESS:          0 HIT:          0 MISS:          0 MSHR_MERGE:          0
cpu0->cpu0_L1D PREFETCH     ACCESS:          0 HIT:          0 MISS:          0 MSHR_MERGE:          0
cpu0->cpu0_L1D WRITE        ACCESS:    9038332 HIT:    8693867 MISS:     344465 MSHR_MERGE:     205127
cpu0->cpu0_L1D TRANSLATION  ACCESS:     301253 HIT:       8058 MISS:     293195 MSHR_MERGE:        302
cpu0->cpu0_L1D PREFETCH REQUESTED:          0 ISSUED:          0 USEFUL:          0 USELESS:          0
cpu0->cpu0_L1D AVERAGE MISS LATENCY: 104.9 cycles
cpu0->cpu0_ITLB TOTAL        ACCESS:    7258576 HIT:    7258372 MISS:        204 MSHR_MERGE:        100
cpu0->cpu0_ITLB LOAD         ACCESS:    7258576 HIT:    7258372 MISS:        204 MSHR_MERGE:        100
cpu0->cpu0_ITLB RFO          ACCESS:          0 HIT:          0 MISS:          0 MSHR_MERGE:          0
cpu0->cpu0_ITLB PREFETCH     ACCESS:          0 HIT:          0 MISS:          0 MSHR_MERGE:          0
cpu0->cpu0_ITLB WRITE        ACCESS:          0 HIT:          0 MISS:          0 MSHR_MERGE:          0
cpu0->cpu0_ITLB TRANSLATION  ACCESS:          0 HIT:          0 MISS:          0 MSHR_MERGE:          0
cpu0->cpu0_ITLB PREFETCH REQUESTED:          0 ISSUED:          0 USEFUL:          0 USELESS:          0
cpu0->cpu0_ITLB AVERAGE MISS LATENCY: 196.6 cycles
cpu0->cpu0_DTLB TOTAL        ACCESS:   17134836 HIT:   16187606 MISS:     947230 MSHR_MERGE:     119362
cpu0->cpu0_DTLB LOAD         ACCESS:   17134836 HIT:   16187606 MISS:     947230 MSHR_MERGE:     119362
cpu0->cpu0_DTLB RFO          ACCESS:          0 HIT:          0 MISS:          0 MSHR_MERGE:          0
cpu0->cpu0_DTLB PREFETCH     ACCESS:          0 HIT:          0 MISS:          0 MSHR_MERGE:          0
cpu0->cpu0_DTLB WRITE        ACCESS:          0 HIT:          0 MISS:          0 MSHR_MERGE:          0
cpu0->cpu0_DTLB TRANSLATION  ACCESS:          0 HIT:          0 MISS:          0 MSHR_MERGE:          0
cpu0->cpu0_DTLB PREFETCH REQUESTED:          0 ISSUED:          0 USEFUL:          0 USELESS:          0
cpu0->cpu0_DTLB AVERAGE MISS LATENCY: 60.31 cycles
cpu0->LLC TOTAL        ACCESS:    2053009 HIT:     454632 MISS:    1598377 MSHR_MERGE:          0
cpu0->LLC LOAD         ACCESS:     552627 HIT:     126191 MISS:     426436 MSHR_MERGE:          0
cpu0->LLC RFO          ACCESS:      79011 HIT:      14171 MISS:      64840 MSHR_MERGE:          0
cpu0->LLC PREFETCH     ACCESS:     743235 HIT:     118859 MISS:     624376 MSHR_MERGE:          0
cpu0->LLC WRITE        ACCESS:     401907 HIT:     142150 MISS:     259757 MSHR_MERGE:          0
cpu0->LLC TRANSLATION  ACCESS:     276229 HIT:      53261 MISS:     222968 MSHR_MERGE:          0
cpu0->LLC PREFETCH REQUESTED:          0 ISSUED:          0 USEFUL:          0 USELESS:          0
cpu0->LLC AVERAGE MISS LATENCY: 116.8 cycles

DRAM Statistics

Channel 0 RQ ROW_BUFFER_HIT:      24691
  ROW_BUFFER_MISS:    1313801
  AVG DBUS CONGESTED CYCLE: 19.91
Channel 0 WQ ROW_BUFFER_HIT:      79735
  ROW_BUFFER_MISS:     212427
  FULL:          0
Channel 0 REFRESHES ISSUED:      11639
