[VMEM] WARNING: physical memory size is smaller than virtual memory size.
WARNING: option --warmup_instructions is deprecated. Use --warmup-instructions instead.
WARNING: option --simulation_instructions is deprecated. Use --simulation-instructions instead.

*** ChampSim Multicore Out-of-Order Simulator ***
Warmup Instructions: 20000000
Simulation Instructions: 50000000
Number of CPUs: 1
Page size: 8192

Off-chip DRAM Size: 16 GiB Channels: 1 Width: 64-bit Data Rate: 3205 MT/s
Heartbeat CPU 0 instructions: 10000002 cycles: 2767150 heartbeat IPC: 3.614 cumulative IPC: 3.614 (Simulation time: 00 hr 00 min 39 sec)
Heartbeat CPU 0 instructions: 20000002 cycles: 5518949 heartbeat IPC: 3.634 cumulative IPC: 3.624 (Simulation time: 00 hr 01 min 18 sec)
Warmup finished CPU 0 instructions: 20000002 cycles: 5518949 cumulative IPC: 3.624 (Simulation time: 00 hr 01 min 18 sec)
Warmup complete CPU 0 instructions: 20000002 cycles: 5518949 cumulative IPC: 3.624 (Simulation time: 00 hr 01 min 18 sec)
Heartbeat CPU 0 instructions: 30000002 cycles: 17027215 heartbeat IPC: 0.8689 cumulative IPC: 0.8689 (Simulation time: 00 hr 03 min 18 sec)
Heartbeat CPU 0 instructions: 40000003 cycles: 28561502 heartbeat IPC: 0.867 cumulative IPC: 0.868 (Simulation time: 00 hr 05 min 19 sec)
Heartbeat CPU 0 instructions: 50000004 cycles: 40002859 heartbeat IPC: 0.874 cumulative IPC: 0.87 (Simulation time: 00 hr 07 min 18 sec)
Heartbeat CPU 0 instructions: 60000006 cycles: 51536167 heartbeat IPC: 0.8671 cumulative IPC: 0.8692 (Simulation time: 00 hr 09 min 18 sec)
Simulation finished CPU 0 instructions: 50000000 cycles: 57546296 cumulative IPC: 0.8689 (Simulation time: 00 hr 11 min 15 sec)
Simulation complete CPU 0 instructions: 50000000 cycles: 57546296 cumulative IPC: 0.8689 (Simulation time: 00 hr 11 min 15 sec)

ChampSim completed all CPUs

=== Simulation ===
CPU 0 runs traces/470.lbm-1274B.champsimtrace.xz

Region of Interest Statistics

CPU 0 cumulative IPC: 0.8689 instructions: 50000000 cycles: 57546296
CPU 0 Branch Prediction Accuracy: 99.79% MPKI: 0.02864 Average ROB Occupancy at Mispredict: 376.7
Branch type MPKI
BRANCH_DIRECT_JUMP: 0
BRANCH_INDIRECT: 0
BRANCH_CONDITIONAL: 0.02864
BRANCH_DIRECT_CALL: 0
BRANCH_INDIRECT_CALL: 0
BRANCH_RETURN: 0

cpu0->cpu0_STLB TOTAL        ACCESS:      11115 HIT:       5557 MISS:       5558 MSHR_MERGE:          0
cpu0->cpu0_STLB LOAD         ACCESS:      11115 HIT:       5557 MISS:       5558 MSHR_MERGE:          0
cpu0->cpu0_STLB RFO          ACCESS:          0 HIT:          0 MISS:          0 MSHR_MERGE:          0
cpu0->cpu0_STLB PREFETCH     ACCESS:          0 HIT:          0 MISS:          0 MSHR_MERGE:          0
cpu0->cpu0_STLB WRITE        ACCESS:          0 HIT:          0 MISS:          0 MSHR_MERGE:          0
cpu0->cpu0_STLB TRANSLATION  ACCESS:          0 HIT:          0 MISS:          0 MSHR_MERGE:          0
cpu0->cpu0_STLB PREFETCH REQUESTED:          0 ISSUED:          0 USEFUL:          0 USELESS:          0
cpu0->cpu0_STLB AVERAGE MISS LATENCY: 1318 cycles
cpu0->cpu0_L2C TOTAL        ACCESS:    4967419 HIT:    3421061 MISS:    1546358 MSHR_MERGE:      87040
cpu0->cpu0_L2C LOAD         ACCESS:     355730 HIT:     271030 MISS:      84700 MSHR_MERGE:      40416
cpu0->cpu0_L2C RFO          ACCESS:    2007003 HIT:     928846 MISS:    1078157 MSHR_MERGE:          0
cpu0->cpu0_L2C PREFETCH     ACCESS:     586219 HIT:     211402 MISS:     374817 MSHR_MERGE:      46624
cpu0->cpu0_L2C WRITE        ACCESS:    2007339 HIT:    2007339 MISS:          0 MSHR_MERGE:          0
cpu0->cpu0_L2C TRANSLATION  ACCESS:      11128 HIT:       2444 MISS:       8684 MSHR_MERGE:          0
cpu0->cpu0_L2C PREFETCH REQUESTED:     586219 ISSUED:     586219 USEFUL:     311446 USELESS:      16824
cpu0->cpu0_L2C AVERAGE MISS LATENCY: 491 cycles
cpu0->cpu0_L1I TOTAL        ACCESS:    8713595 HIT:    8713595 MISS:          0 MSHR_MERGE:          0
cpu0->cpu0_L1I LOAD         ACCESS:    8713595 HIT:    8713595 MISS:          0 MSHR_MERGE:          0
cpu0->cpu0_L1I RFO          ACCESS:          0 HIT:          0 MISS:          0 MSHR_MERGE:          0
cpu0->cpu0_L1I PREFETCH     ACCESS:          0 HIT:          0 MISS:          0 MSHR_MERGE:          0
cpu0->cpu0_L1I WRITE        ACCESS:          0 HIT:          0 MISS:          0 MSHR_MERGE:          0
cpu0->cpu0_L1I TRANSLATION  ACCESS:          0 HIT:          0 MISS:          0 MSHR_MERGE:          0
cpu0->cpu0_L1I PREFETCH REQUESTED:          0 ISSUED:          0 USEFUL:          0 USELESS:          0
cpu0->cpu0_L1I AVERAGE MISS LATENCY: - cycles
cpu0->cpu0_L1D TOTAL        ACCESS:    7435169 HIT:    4882202 MISS:    2552967 MSHR_MERGE:     178759
cpu0->cpu0_L1D LOAD         ACCESS:    2400522 HIT:    1934611 MISS:     465911 MSHR_MERGE:     110181
cpu0->cpu0_L1D RFO          ACCESS:          0 HIT:          0 MISS:          0 MSHR_MERGE:          0
cpu0->cpu0_L1D PREFETCH     ACCESS:          0 HIT:          0 MISS:          0 MSHR_MERGE:          0
cpu0->cpu0_L1D WRITE        ACCESS:    5023519 HIT:    2947591 MISS:    2075928 MSHR_MERGE:      68578
cpu0->cpu0_L1D TRANSLATION  ACCESS:      11128 HIT:          0 MISS:      11128 MSHR_MERGE:          0
cpu0->cpu0_L1D PREFETCH REQUESTED:          0 ISSUED:          0 USEFUL:          0 USELESS:          0
cpu0->cpu0_L1D AVERAGE MISS LATENCY: 281.8 cycles
cpu0->cpu0_ITLB TOTAL        ACCESS:    6957707 HIT:    6957707 MISS:          0 MSHR_MERGE:          0
cpu0->cpu0_ITLB LOAD         ACCESS:    6957707 HIT:    6957707 MISS:          0 MSHR_MERGE:          0
cpu0->cpu0_ITLB RFO          ACCESS:          0 HIT:          0 MISS:          0 MSHR_MERGE:          0
cpu0->cpu0_ITLB PREFETCH     ACCESS:          0 HIT:          0 MISS:          0 MSHR_MERGE:          0
cpu0->cpu0_ITLB WRITE        ACCESS:          0 HIT:          0 MISS:          0 MSHR_MERGE:          0
cpu0->cpu0_ITLB TRANSLATION  ACCESS:          0 HIT:          0 MISS:          0 MSHR_MERGE:          0
cpu0->cpu0_ITLB PREFETCH REQUESTED:          0 ISSUED:          0 USEFUL:          0 USELESS:          0
cpu0->cpu0_ITLB AVERAGE MISS LATENCY: - cycles
cpu0->cpu0_DTLB TOTAL        ACCESS:    6948474 HIT:    6919601 MISS:      28873 MSHR_MERGE:      17758
cpu0->cpu0_DTLB LOAD         ACCESS:    6948474 HIT:    6919601 MISS:      28873 MSHR_MERGE:      17758
cpu0->cpu0_DTLB RFO          ACCESS:          0 HIT:          0 MISS:          0 MSHR_MERGE:          0
cpu0->cpu0_DTLB PREFETCH     ACCESS:          0 HIT:          0 MISS:          0 MSHR_MERGE:          0
cpu0->cpu0_DTLB WRITE        ACCESS:          0 HIT:          0 MISS:          0 MSHR_MERGE:          0
cpu0->cpu0_DTLB TRANSLATION  ACCESS:          0 HIT:          0 MISS:          0 MSHR_MERGE:          0
cpu0->cpu0_DTLB PREFETCH REQUESTED:          0 ISSUED:          0 USEFUL:          0 USELESS:          0
cpu0->cpu0_DTLB AVERAGE MISS LATENCY: 663.6 cycles
cpu0->LLC TOTAL        ACCESS:    2537705 HIT:      72344 MISS:    2465361 MSHR_MERGE:          0
cpu0->LLC LOAD         ACCESS:      44284 HIT:          0 MISS:      44284 MSHR_MERGE:          0
cpu0->LLC RFO          ACCESS:    1078156 HIT:      21866 MISS:    1056290 MSHR_MERGE:          0
cpu0->LLC PREFETCH     ACCESS:     328193 HIT:          0 MISS:     328193 MSHR_MERGE:          0
cpu0->LLC WRITE        ACCESS:    1078388 HIT:      50478 MISS:    1027910 MSHR_MERGE:          0
cpu0->LLC TRANSLATION  ACCESS:       8684 HIT:          0 MISS:       8684 MSHR_MERGE:          0
cpu0->LLC PREFETCH REQUESTED:          0 ISSUED:          0 USEFUL:          0 USELESS:          0
cpu0->LLC AVERAGE MISS LATENCY: 259.1 cycles

DRAM Statistics

Channel 0 RQ ROW_BUFFER_HIT:      45061
  ROW_BUFFER_MISS:    1392271
  AVG DBUS CONGESTED CYCLE: 11.86
Channel 0 WQ ROW_BUFFER_HIT:     142181
  ROW_BUFFER_MISS:     910738
  FULL:          0
Channel 0 REFRESHES ISSUED:       4796
