[VMEM] WARNING: physical memory size is smaller than virtual memory size.
WARNING: option --warmup_instructions is deprecated. Use --warmup-instructions instead.
WARNING: option --simulation_instructions is deprecated. Use --simulation-instructions instead.

*** ChampSim Multicore Out-of-Order Simulator ***
Warmup Instructions: 20000000
Simulation Instructions: 50000000
Number of CPUs: 1
Page size: 8192

Off-chip DRAM Size: 16 GiB Channels: 1 Width: 64-bit Data Rate: 3205 MT/s
Heartbeat CPU 0 instructions: 10000000 cycles: 4304080 heartbeat IPC: 2.323 cumulative IPC: 2.323 (Simulation time: 00 hr 00 min 50 sec)
Heartbeat CPU 0 instructions: 20000000 cycles: 8600022 heartbeat IPC: 2.328 cumulative IPC: 2.326 (Simulation time: 00 hr 01 min 41 sec)
Warmup finished CPU 0 instructions: 20000000 cycles: 8600022 cumulative IPC: 2.326 (Simulation time: 00 hr 01 min 41 sec)
Warmup complete CPU 0 instructions: 20000000 cycles: 8600022 cumulative IPC: 2.326 (Simulation time: 00 hr 01 min 41 sec)
Heartbeat CPU 0 instructions: 30000003 cycles: 16113749 heartbeat IPC: 1.331 cumulative IPC: 1.331 (Simulation time: 00 hr 02 min 47 sec)
Heartbeat CPU 0 instructions: 40000003 cycles: 23635699 heartbeat IPC: 1.329 cumulative IPC: 1.33 (Simulation time: 00 hr 03 min 54 sec)
Heartbeat CPU 0 instructions: 50000003 cycles: 31143860 heartbeat IPC: 1.332 cumulative IPC: 1.331 (Simulation time: 00 hr 05 min 04 sec)
Heartbeat CPU 0 instructions: 60000005 cycles: 38672654 heartbeat IPC: 1.328 cumulative IPC: 1.33 (Simulation time: 00 hr 06 min 13 sec)
Simulation finished CPU 0 instructions: 50000000 cycles: 37583888 cumulative IPC: 1.33 (Simulation time: 00 hr 07 min 24 sec)
Simulation complete CPU 0 instructions: 50000000 cycles: 37583888 cumulative IPC: 1.33 (Simulation time: 00 hr 07 min 24 sec)

ChampSim completed all CPUs

=== Simulation ===
CPU 0 runs traces/603.bwaves_s-1740B.champsimtrace.xz

Region of Interest Statistics

CPU 0 cumulative IPC: 1.33 instructions: 50000000 cycles: 37583888
CPU 0 Branch Prediction Accuracy: 99.97% MPKI: 0.00734 Average ROB Occupancy at Mispredict: 190
Branch type MPKI
BRANCH_DIRECT_JUMP: 0
BRANCH_INDIRECT: 0
BRANCH_CONDITIONAL: 0.00734
BRANCH_DIRECT_CALL: 0
BRANCH_INDIRECT_CALL: 0
BRANCH_RETURN: 0

cpu0->cpu0_STLB TOTAL        ACCESS:       7425 HIT:        365 MISS:       7060 MSHR_MERGE:          0
cpu0->cpu0_STLB LOAD         ACCESS:       7425 HIT:        365 MISS:       7060 MSHR_MERGE:          0
cpu0->cpu0_STLB RFO          ACCESS:          0 HIT:          0 MISS:          0 MSHR_MERGE:          0
cpu0->cpu0_STLB PREFETCH     ACCESS:          0 HIT:          0 MISS:          0 MSHR_MERGE:          0
cpu0->cpu0_STLB WRITE        ACCESS:          0 HIT:          0 MISS:          0 MSHR_MERGE:          0
cpu0->cpu0_STLB TRANSLATION  ACCESS:          0 HIT:          0 MISS:          0 MSHR_MERGE:          0
cpu0->cpu0_STLB PREFETCH REQUESTED:          0 ISSUED:          0 USEFUL:          0 USELESS:          0
cpu0->cpu0_STLB AVERAGE MISS LATENCY: 592.1 cycles
cpu0->cpu0_L2C TOTAL        ACCESS:    4027025 HIT:    2314487 MISS:    1712538 MSHR_MERGE:     536260
cpu0->cpu0_L2C LOAD         ACCESS:    1020661 HIT:     996970 MISS:      23691 MSHR_MERGE:       7823
cpu0->cpu0_L2C RFO          ACCESS:      33104 HIT:       8742 MISS:      24362 MSHR_MERGE:          0
cpu0->cpu0_L2C PREFETCH     ACCESS:    2922805 HIT:    1268849 MISS:    1653956 MSHR_MERGE:     528437
cpu0->cpu0_L2C WRITE        ACCESS:      36891 HIT:      36857 MISS:         34 MSHR_MERGE:          0
cpu0->cpu0_L2C TRANSLATION  ACCESS:      13564 HIT:       3069 MISS:      10495 MSHR_MERGE:          0
cpu0->cpu0_L2C PREFETCH REQUESTED:    3083154 ISSUED:    2922797 USEFUL:     917306 USELESS:        270
cpu0->cpu0_L2C AVERAGE MISS LATENCY: 100.7 cycles
cpu0->cpu0_L1I TOTAL        ACCESS:   12021701 HIT:   12021701 MISS:          0 MSHR_MERGE:          0
cpu0->cpu0_L1I LOAD         ACCESS:   12021701 HIT:   12021701 MISS:          0 MSHR_MERGE:          0
cpu0->cpu0_L1I RFO          ACCESS:          0 HIT:          0 MISS:          0 MSHR_MERGE:          0
cpu0->cpu0_L1I PREFETCH     ACCESS:          0 HIT:          0 MISS:          0 MSHR_MERGE:          0
cpu0->cpu0_L1I WRITE        ACCESS:          0 HIT:          0 MISS:          0 MSHR_MERGE:          0
cpu0->cpu0_L1I TRANSLATION  ACCESS:          0 HIT:          0 MISS:          0 MSHR_MERGE:          0
cpu0->cpu0_L1I PREFETCH REQUESTED:          0 ISSUED:          0 USEFUL:          0 USELESS:          0
cpu0->cpu0_L1I AVERAGE MISS LATENCY: - cycles
cpu0->cpu0_L1D TOTAL        ACCESS:   16958533 HIT:   15879807 MISS:    1078726 MSHR_MERGE:      11241
cpu0->cpu0_L1D LOAD         ACCESS:   14127776 HIT:   13102141 MISS:    1025635 MSHR_MERGE:       4920
cpu0->cpu0_L1D RFO          ACCESS:          0 HIT:          0 MISS:          0 MSHR_MERGE:          0
cpu0->cpu0_L1D PREFETCH     ACCESS:          0 HIT:          0 MISS:          0 MSHR_MERGE:          0
cpu0->cpu0_L1D WRITE        ACCESS:    2816699 HIT:    2777369 MISS:      39330 MSHR_MERGE:       6124
cpu0->cpu0_L1D TRANSLATION  ACCESS:      14058 HIT:        297 MISS:      13761 MSHR_MERGE:        197
cpu0->cpu0_L1D PREFETCH REQUESTED:          0 ISSUED:          0 USEFUL:          0 USELESS:          0
cpu0->cpu0_L1D AVERAGE MISS LATENCY: 14.03 cycles
cpu0->cpu0_ITLB TOTAL        ACCESS:   10886133 HIT:   10886133 MISS:          0 MSHR_MERGE:          0
cpu0->cpu0_ITLB LOAD         ACCESS:   10886133 HIT:   10886133 MISS:          0 MSHR_MERGE:          0
cpu0->cpu0_ITLB RFO          ACCESS:          0 HIT:          0 MISS:          0 MSHR_MERGE:          0
cpu0->cpu0_ITLB PREFETCH     ACCESS:          0 HIT:          0 MISS:          0 MSHR_MERGE:          0
cpu0->cpu0_ITLB WRITE        ACCESS:          0 HIT:          0 MISS:          0 MSHR_MERGE:          0
cpu0->cpu0_ITLB TRANSLATION  ACCESS:          0 HIT:          0 MISS:          0 MSHR_MERGE:          0
cpu0->cpu0_ITLB PREFETCH REQUESTED:          0 ISSUED:          0 USEFUL:          0 USELESS:          0
cpu0->cpu0_ITLB AVERAGE MISS LATENCY: - cycles
cpu0->cpu0_DTLB TOTAL        ACCESS:   16315400 HIT:   16302791 MISS:      12609 MSHR_MERGE:       5184
cpu0->cpu0_DTLB LOAD         ACCESS:   16315400 HIT:   16302791 MISS:      12609 MSHR_MERGE:       5184
cpu0->cpu0_DTLB RFO          ACCESS:          0 HIT:          0 MISS:          0 MSHR_MERGE:          0
cpu0->cpu0_DTLB PREFETCH     ACCESS:          0 HIT:          0 MISS:          0 MSHR_MERGE:          0
cpu0->cpu0_DTLB WRITE        ACCESS:          0 HIT:          0 MISS:          0 MSHR_MERGE:          0
cpu0->cpu0_DTLB TRANSLATION  ACCESS:          0 HIT:          0 MISS:          0 MSHR_MERGE:          0
cpu0->cpu0_DTLB PREFETCH REQUESTED:          0 ISSUED:          0 USEFUL:          0 USELESS:          0
cpu0->cpu0_DTLB AVERAGE MISS LATENCY: 567.9 cycles
cpu0->LLC TOTAL        ACCESS:    1200769 HIT:     163956 MISS:    1036813 MSHR_MERGE:      26843
cpu0->LLC LOAD         ACCESS:      15868 HIT:       5804 MISS:      10064 MSHR_MERGE:         48
cpu0->LLC RFO          ACCESS:      24362 HIT:          0 MISS:      24362 MSHR_MERGE:          0
cpu0->LLC PREFETCH     ACCESS:    1125519 HIT:     155222 MISS:     970297 MSHR_MERGE:      26795
cpu0->LLC WRITE        ACCESS:      24525 HIT:       2922 MISS:      21603 MSHR_MERGE:          0
cpu0->LLC TRANSLATION  ACCESS:      10495 HIT:          8 MISS:      10487 MSHR_MERGE:          0
cpu0->LLC PREFETCH REQUESTED:          0 ISSUED:          0 USEFUL:          0 USELESS:          0
cpu0->LLC AVERAGE MISS LATENCY: 71.8 cycles

DRAM Statistics

Channel 0 RQ ROW_BUFFER_HIT:      16789
  ROW_BUFFER_MISS:     971578
  AVG DBUS CONGESTED CYCLE: 3.26
Channel 0 WQ ROW_BUFFER_HIT:       1346
  ROW_BUFFER_MISS:      23866
  FULL:          0
Channel 0 REFRESHES ISSUED:       3132
