[VMEM] WARNING: physical memory size is smaller than virtual memory size.
WARNING: option --warmup_instructions is deprecated. Use --warmup-instructions instead.
WARNING: option --simulation_instructions is deprecated. Use --simulation-instructions instead.

*** ChampSim Multicore Out-of-Order Simulator ***
Warmup Instructions: 20000000
Simulation Instructions: 50000000
Number of CPUs: 1
Page size: 8192

Off-chip DRAM Size: 16 GiB Channels: 1 Width: 64-bit Data Rate: 3205 MT/s
Heartbeat CPU 0 instructions: 10000001 cycles: 4631563 heartbeat IPC: 2.159 cumulative IPC: 2.159 (Simulation time: 00 hr 00 min 49 sec)
Heartbeat CPU 0 instructions: 20000002 cycles: 9209377 heartbeat IPC: 2.184 cumulative IPC: 2.172 (Simulation time: 00 hr 01 min 39 sec)
Warmup finished CPU 0 instructions: 20000002 cycles: 9209377 cumulative IPC: 2.172 (Simulation time: 00 hr 01 min 39 sec)
Warmup complete CPU 0 instructions: 20000002 cycles: 9209377 cumulative IPC: 2.172 (Simulation time: 00 hr 01 min 39 sec)
Heartbeat CPU 0 instructions: 30000005 cycles: 46543611 heartbeat IPC: 0.2679 cumulative IPC: 0.2679 (Simulation time: 00 hr 04 min 30 sec)
Heartbeat CPU 0 instructions: 40000005 cycles: 83775420 heartbeat IPC: 0.2686 cumulative IPC: 0.2682 (Simulation time: 00 hr 07 min 25 sec)
Heartbeat CPU 0 instructions: 50000007 cycles: 121523245 heartbeat IPC: 0.2649 cumulative IPC: 0.2671 (Simulation time: 00 hr 10 min 25 sec)
Heartbeat CPU 0 instructions: 60000007 cycles: 159278281 heartbeat IPC: 0.2649 cumulative IPC: 0.2665 (Simulation time: 00 hr 13 min 17 sec)
Simulation finished CPU 0 instructions: 50000002 cycles: 188308231 cumulative IPC: 0.2655 (Simulation time: 00 hr 16 min 12 sec)
Simulation complete CPU 0 instructions: 50000002 cycles: 188308231 cumulative IPC: 0.2655 (Simulation time: 00 hr 16 min 12 sec)

ChampSim completed all CPUs

=== Simulation ===
CPU 0 runs traces/605.mcf_s-1152B.champsimtrace.xz

Region of Interest Statistics

CPU 0 cumulative IPC: 0.2655 instructions: 50000002 cycles: 188308231
CPU 0 Branch Prediction Accuracy: 90.19% MPKI: 24.48 Average ROB Occupancy at Mispredict: 21.33
Branch type MPKI
BRANCH_DIRECT_JUMP: 0.2057
BRANCH_INDIRECT: 0
BRANCH_CONDITIONAL: 24.27
BRANCH_DIRECT_CALL: 0
BRANCH_INDIRECT_CALL: 0.0036
BRANCH_RETURN: 2e-05

cpu0->cpu0_STLB TOTAL        ACCESS:    1006296 HIT:    1000539 MISS:       5757 MSHR_MERGE:          0
cpu0->cpu0_STLB LOAD         ACCESS:    1006296 HIT:    1000539 MISS:       5757 MSHR_MERGE:          0
cpu0->cpu0_STLB RFO          ACCESS:          0 HIT:          0 MISS:          0 MSHR_MERGE:          0
cpu0->cpu0_STLB PREFETCH     ACCESS:          0 HIT:          0 MISS:          0 MSHR_MERGE:          0
cpu0->cpu0_STLB WRITE        ACCESS:          0 HIT:          0 MISS:          0 MSHR_MERGE:          0
cpu0->cpu0_STLB TRANSLATION  ACCESS:          0 HIT:          0 MISS:          0 MSHR_MERGE:          0
cpu0->cpu0_STLB PREFETCH REQUESTED:          0 ISSUED:          0 USEFUL:          0 USELESS:          0
cpu0->cpu0_STLB AVERAGE MISS LATENCY: 608.9 cycles
cpu0->cpu0_L2C TOTAL        ACCESS:    3014273 HIT:     737604 MISS:    2276669 MSHR_MERGE:          0
cpu0->cpu0_L2C LOAD         ACCESS:    2552743 HIT:     417421 MISS:    2135322 MSHR_MERGE:          0
cpu0->cpu0_L2C RFO          ACCESS:     187392 HIT:      53169 MISS:     134223 MSHR_MERGE:          0
cpu0->cpu0_L2C PREFETCH     ACCESS:          0 HIT:          0 MISS:          0 MSHR_MERGE:          0
cpu0->cpu0_L2C WRITE        ACCESS:     265792 HIT:     265473 MISS:        319 MSHR_MERGE:          0
cpu0->cpu0_L2C TRANSLATION  ACCESS:       8346 HIT:       1541 MISS:       6805 MSHR_MERGE:          0
cpu0->cpu0_L2C PREFETCH REQUESTED:          0 ISSUED:          0 USEFUL:          0 USELESS:          0
cpu0->cpu0_L2C AVERAGE MISS LATENCY: 66.51 cycles
cpu0->cpu0_L1I TOTAL        ACCESS:     434242 HIT:     434242 MISS:          0 MSHR_MERGE:          0
cpu0->cpu0_L1I LOAD         ACCESS:     434242 HIT:     434242 MISS:          0 MSHR_MERGE:          0
cpu0->cpu0_L1I RFO          ACCESS:          0 HIT:          0 MISS:          0 MSHR_MERGE:          0
cpu0->cpu0_L1I PREFETCH     ACCESS:          0 HIT:          0 MISS:          0 MSHR_MERGE:          0
cpu0->cpu0_L1I WRITE        ACCESS:          0 HIT:          0 MISS:          0 MSHR_MERGE:          0
cpu0->cpu0_L1I TRANSLATION  ACCESS:          0 HIT:          0 MISS:          0 MSHR_MERGE:          0
cpu0->cpu0_L1I PREFETCH REQUESTED:          0 ISSUED:          0 USEFUL:          0 USELESS:          0
cpu0->cpu0_L1I AVERAGE MISS LATENCY: - cycles
cpu0->cpu0_L1D TOTAL        ACCESS:   17997479 HIT:   14343856 MISS:    3653623 MSHR_MERGE:     905139
cpu0->cpu0_L1D LOAD         ACCESS:   12821624 HIT:    9656958 MISS:    3164666 MSHR_MERGE:     611922
cpu0->cpu0_L1D RFO          ACCESS:          0 HIT:          0 MISS:          0 MSHR_MERGE:          0
cpu0->cpu0_L1D PREFETCH     ACCESS:          0 HIT:          0 MISS:          0 MSHR_MERGE:          0
cpu0->cpu0_L1D WRITE        ACCESS:    5164245 HIT:    4683634 MISS:     480611 MSHR_MERGE:     293217
cpu0->cpu0_L1D TRANSLATION  ACCESS:      11610 HIT:       3264 MISS:       8346 MSHR_MERGE:          0
cpu0->cpu0_L1D PREFETCH REQUESTED:          0 ISSUED:          0 USEFUL:          0 USELESS:          0
cpu0->cpu0_L1D AVERAGE MISS LATENCY: 63.93 cycles
cpu0->cpu0_ITLB TOTAL        ACCESS:     403039 HIT:     403039 MISS:          0 MSHR_MERGE:          0
cpu0->cpu0_ITLB LOAD         ACCESS:     403039 HIT:     403039 MISS:          0 MSHR_MERGE:          0
cpu0->cpu0_ITLB RFO          ACCESS:          0 HIT:          0 MISS:          0 MSHR_MERGE:          0
cpu0->cpu0_ITLB PREFETCH     ACCESS:          0 HIT:          0 MISS:          0 MSHR_MERGE:          0
cpu0->cpu0_ITLB WRITE        ACCESS:          0 HIT:          0 MISS:          0 MSHR_MERGE:          0
cpu0->cpu0_ITLB TRANSLATION  ACCESS:          0 HIT:          0 MISS:          0 MSHR_MERGE:          0
cpu0->cpu0_ITLB PREFETCH REQUESTED:          0 ISSUED:          0 USEFUL:          0 USELESS:          0
cpu0->cpu0_ITLB AVERAGE MISS LATENCY: - cycles
cpu0->cpu0_DTLB TOTAL        ACCESS:   16860141 HIT:   15669671 MISS:    1190470 MSHR_MERGE:     184174
cpu0->cpu0_DTLB LOAD         ACCESS:   16860141 HIT:   15669671 MISS:    1190470 MSHR_MERGE:     184174
cpu0->cpu0_DTLB RFO          ACCESS:          0 HIT:          0 MISS:          0 MSHR_MERGE:          0
cpu0->cpu0_DTLB PREFETCH     ACCESS:          0 HIT:          0 MISS:          0 MSHR_MERGE:          0
cpu0->cpu0_DTLB WRITE        ACCESS:          0 HIT:          0 MISS:          0 MSHR_MERGE:          0
cpu0->cpu0_DTLB TRANSLATION  ACCESS:          0 HIT:          0 MISS:          0 MSHR_MERGE:          0
cpu0->cpu0_DTLB PREFETCH REQUESTED:          0 ISSUED:          0 USEFUL:          0 USELESS:          0
cpu0->cpu0_DTLB AVERAGE MISS LATENCY: 7.489 cycles
cpu0->LLC TOTAL        ACCESS:    2479309 HIT:    1541046 MISS:     938263 MSHR_MERGE:          0
cpu0->LLC LOAD         ACCESS:    2135321 HIT:    1204792 MISS:     930529 MSHR_MERGE:          0
cpu0->LLC RFO          ACCESS:     134223 HIT:     133320 MISS:        903 MSHR_MERGE:          0
cpu0->LLC PREFETCH     ACCESS:          0 HIT:          0 MISS:          0 MSHR_MERGE:          0
cpu0->LLC WRITE        ACCESS:     202960 HIT:     202908 MISS:         52 MSHR_MERGE:          0
cpu0->LLC TRANSLATION  ACCESS:       6805 HIT:         26 MISS:       6779 MSHR_MERGE:          0
cpu0->LLC PREFETCH REQUESTED:          0 ISSUED:          0 USEFUL:          0 USELESS:          0
cpu0->LLC AVERAGE MISS LATENCY: 121.6 cycles

DRAM Statistics

Channel 0 RQ ROW_BUFFER_HIT:     191448
  ROW_BUFFER_MISS:     746759
  AVG DBUS CONGESTED CYCLE: 22.9
Channel 0 WQ ROW_BUFFER_HIT:        295
  ROW_BUFFER_MISS:       4685
  FULL:          0
Channel 0 REFRESHES ISSUED:      15692
