[VMEM] WARNING: physical memory size is smaller than virtual memory size.
WARNING: option --warmup_instructions is deprecated. Use --warmup-instructions instead.
WARNING: option --simulation_instructions is deprecated. Use --simulation-instructions instead.

*** ChampSim Multicore Out-of-Order Simulator ***
Warmup Instructions: 20000000
Simulation Instructions: 50000000
Number of CPUs: 1
Page size: 8192

Off-chip DRAM Size: 16 GiB Channels: 1 Width: 64-bit Data Rate: 3205 MT/s
Heartbeat CPU 0 instructions: 10000002 cycles: 3352365 heartbeat IPC: 2.983 cumulative IPC: 2.983 (Simulation time: 00 hr 00 min 33 sec)
Heartbeat CPU 0 instructions: 20000002 cycles: 6693397 heartbeat IPC: 2.993 cumulative IPC: 2.988 (Simulation time: 00 hr 01 min 06 sec)
Warmup finished CPU 0 instructions: 20000002 cycles: 6693397 cumulative IPC: 2.988 (Simulation time: 00 hr 01 min 06 sec)
Warmup complete CPU 0 instructions: 20000002 cycles: 6693397 cumulative IPC: 2.988 (Simulation time: 00 hr 01 min 06 sec)
Heartbeat CPU 0 instructions: 30000002 cycles: 21667870 heartbeat IPC: 0.6678 cumulative IPC: 0.6678 (Simulation time: 00 hr 03 min 09 sec)
Heartbeat CPU 0 instructions: 40000002 cycles: 36690159 heartbeat IPC: 0.6657 cumulative IPC: 0.6667 (Simulation time: 00 hr 05 min 12 sec)
Heartbeat CPU 0 instructions: 50000004 cycles: 51656586 heartbeat IPC: 0.6682 cumulative IPC: 0.6672 (Simulation time: 00 hr 07 min 14 sec)
Heartbeat CPU 0 instructions: 60000006 cycles: 66668672 heartbeat IPC: 0.6661 cumulative IPC: 0.6669 (Simulation time: 00 hr 09 min 15 sec)
Simulation finished CPU 0 instructions: 50000002 cycles: 74923161 cumulative IPC: 0.6674 (Simulation time: 00 hr 11 min 16 sec)
Simulation complete CPU 0 instructions: 50000002 cycles: 74923161 cumulative IPC: 0.6674 (Simulation time: 00 hr 11 min 16 sec)

ChampSim completed all CPUs

=== Simulation ===
CPU 0 runs traces/470.lbm-1274B.champsimtrace.xz

Region of Interest Statistics

CPU 0 cumulative IPC: 0.6674 instructions: 50000002 cycles: 74923161
CPU 0 Branch Prediction Accuracy: 99.79% MPKI: 0.02864 Average ROB Occupancy at Mispredict: 96
Branch type MPKI
BRANCH_DIRECT_JUMP: 0
BRANCH_INDIRECT: 0
BRANCH_CONDITIONAL: 0.02864
BRANCH_DIRECT_CALL: 0
BRANCH_INDIRECT_CALL: 0
BRANCH_RETURN: 0

cpu0->cpu0_STLB TOTAL        ACCESS:      11115 HIT:       5557 MISS:       5558 MSHR_MERGE:          0
cpu0->cpu0_STLB LOAD         ACCESS:      11115 HIT:       5557 MISS:       5558 MSHR_MERGE:          0
cpu0->cpu0_STLB RFO          ACCESS:          0 HIT:          0 MISS:          0 MSHR_MERGE:          0
cpu0->cpu0_STLB PREFETCH     ACCESS:          0 HIT:          0 MISS:          0 MSHR_MERGE:          0
cpu0->cpu0_STLB WRITE        ACCESS:          0 HIT:          0 MISS:          0 MSHR_MERGE:          0
cpu0->cpu0_STLB TRANSLATION  ACCESS:          0 HIT:          0 MISS:          0 MSHR_MERGE:          0
cpu0->cpu0_STLB PREFETCH REQUESTED:          0 ISSUED:          0 USEFUL:          0 USELESS:          0
cpu0->cpu0_STLB AVERAGE MISS LATENCY: 889.5 cycles
cpu0->cpu0_L2C TOTAL        ACCESS:    4350641 HIT:    2909430 MISS:    1441211 MSHR_MERGE:          0
cpu0->cpu0_L2C LOAD         ACCESS:     355732 HIT:          0 MISS:     355732 MSHR_MERGE:          0
cpu0->cpu0_L2C RFO          ACCESS:    1991889 HIT:     915139 MISS:    1076750 MSHR_MERGE:          0
cpu0->cpu0_L2C PREFETCH     ACCESS:          0 HIT:          0 MISS:          0 MSHR_MERGE:          0
cpu0->cpu0_L2C WRITE        ACCESS:    1991892 HIT:    1991847 MISS:         45 MSHR_MERGE:          0
cpu0->cpu0_L2C TRANSLATION  ACCESS:      11128 HIT:       2444 MISS:       8684 MSHR_MERGE:          0
cpu0->cpu0_L2C PREFETCH REQUESTED:          0 ISSUED:          0 USEFUL:          0 USELESS:          0
cpu0->cpu0_L2C AVERAGE MISS LATENCY: 325.6 cycles
cpu0->cpu0_L1I TOTAL        ACCESS:    9072503 HIT:    9072503 MISS:          0 MSHR_MERGE:          0
cpu0->cpu0_L1I LOAD         ACCESS:    9072503 HIT:    9072503 MISS:          0 MSHR_MERGE:          0
cpu0->cpu0_L1I RFO          ACCESS:          0 HIT:          0 MISS:          0 MSHR_MERGE:          0
cpu0->cpu0_L1I PREFETCH     ACCESS:          0 HIT:          0 MISS:          0 MSHR_MERGE:          0
cpu0->cpu0_L1I WRITE        ACCESS:          0 HIT:          0 MISS:          0 MSHR_MERGE:          0
cpu0->cpu0_L1I TRANSLATION  ACCESS:          0 HIT:          0 MISS:          0 MSHR_MERGE:          0
cpu0->cpu0_L1I PREFETCH REQUESTED:          0 ISSUED:          0 USEFUL:          0 USELESS:          0
cpu0->cpu0_L1I AVERAGE MISS LATENCY: - cycles
cpu0->cpu0_L1D TOTAL        ACCESS:    7725881 HIT:    5340146 MISS:    2385735 MSHR_MERGE:      26986
cpu0->cpu0_L1D LOAD         ACCESS:    2691234 HIT:    2309965 MISS:     381269 MSHR_MERGE:      25537
cpu0->cpu0_L1D RFO          ACCESS:          0 HIT:          0 MISS:          0 MSHR_MERGE:          0
cpu0->cpu0_L1D PREFETCH     ACCESS:          0 HIT:          0 MISS:          0 MSHR_MERGE:          0
cpu0->cpu0_L1D WRITE        ACCESS:    5023519 HIT:    3030181 MISS:    1993338 MSHR_MERGE:       1449
cpu0->cpu0_L1D TRANSLATION  ACCESS:      11128 HIT:          0 MISS:      11128 MSHR_MERGE:          0
cpu0->cpu0_L1D PREFETCH REQUESTED:          0 ISSUED:          0 USEFUL:          0 USELESS:          0
cpu0->cpu0_L1D AVERAGE MISS LATENCY: 207.7 cycles
cpu0->cpu0_ITLB TOTAL        ACCESS:    7369088 HIT:    7369088 MISS:          0 MSHR_MERGE:          0
cpu0->cpu0_ITLB LOAD         ACCESS:    7369088 HIT:    7369088 MISS:          0 MSHR_MERGE:          0
cpu0->cpu0_ITLB RFO          ACCESS:          0 HIT:          0 MISS:          0 MSHR_MERGE:          0
cpu0->cpu0_ITLB PREFETCH     ACCESS:          0 HIT:          0 MISS:          0 MSHR_MERGE:          0
cpu0->cpu0_ITLB WRITE        ACCESS:          0 HIT:          0 MISS:          0 MSHR_MERGE:          0
cpu0->cpu0_ITLB TRANSLATION  ACCESS:          0 HIT:          0 MISS:          0 MSHR_MERGE:          0
cpu0->cpu0_ITLB PREFETCH REQUESTED:          0 ISSUED:          0 USEFUL:          0 USELESS:          0
cpu0->cpu0_ITLB AVERAGE MISS LATENCY: - cycles
cpu0->cpu0_DTLB TOTAL        ACCESS:    7312061 HIT:    7293315 MISS:      18746 MSHR_MERGE:       7631
cpu0->cpu0_DTLB LOAD         ACCESS:    7312061 HIT:    7293315 MISS:      18746 MSHR_MERGE:       7631
cpu0->cpu0_DTLB RFO          ACCESS:          0 HIT:          0 MISS:          0 MSHR_MERGE:          0
cpu0->cpu0_DTLB PREFETCH     ACCESS:          0 HIT:          0 MISS:          0 MSHR_MERGE:          0
cpu0->cpu0_DTLB WRITE        ACCESS:          0 HIT:          0 MISS:          0 MSHR_MERGE:          0
cpu0->cpu0_DTLB TRANSLATION  ACCESS:          0 HIT:          0 MISS:          0 MSHR_MERGE:          0
cpu0->cpu0_DTLB PREFETCH REQUESTED:          0 ISSUED:          0 USEFUL:          0 USELESS:          0
cpu0->cpu0_DTLB AVERAGE MISS LATENCY: 449.3 cycles
cpu0->LLC TOTAL        ACCESS:    2518266 HIT:      66214 MISS:    2452052 MSHR_MERGE:          0
cpu0->LLC LOAD         ACCESS:     355732 HIT:          0 MISS:     355732 MSHR_MERGE:          0
cpu0->LLC RFO          ACCESS:    1076750 HIT:      19124 MISS:    1057626 MSHR_MERGE:          0
cpu0->LLC PREFETCH     ACCESS:          0 HIT:          0 MISS:          0 MSHR_MERGE:          0
cpu0->LLC WRITE        ACCESS:    1077100 HIT:      47090 MISS:    1030010 MSHR_MERGE:          0
cpu0->LLC TRANSLATION  ACCESS:       8684 HIT:          0 MISS:       8684 MSHR_MERGE:          0
cpu0->LLC PREFETCH REQUESTED:          0 ISSUED:          0 USEFUL:          0 USELESS:          0
cpu0->LLC AVERAGE MISS LATENCY: 185.2 cycles

DRAM Statistics

Channel 0 RQ ROW_BUFFER_HIT:       6973
  ROW_BUFFER_MISS:    1414995
  AVG DBUS CONGESTED CYCLE: 12.1
Channel 0 WQ ROW_BUFFER_HIT:     176857
  ROW_BUFFER_MISS:     877875
  FULL:          0
Channel 0 REFRESHES ISSUED:       6244
