[VMEM] WARNING: physical memory size is smaller than virtual memory size.
WARNING: option --warmup_instructions is deprecated. Use --warmup-instructions instead.
WARNING: option --simulation_instructions is deprecated. Use --simulation-instructions instead.

*** ChampSim Multicore Out-of-Order Simulator ***
Warmup Instructions: 20000000
Simulation Instructions: 50000000
Number of CPUs: 1
Page size: 8192

Off-chip DRAM Size: 16 GiB Channels: 1 Width: 64-bit Data Rate: 3205 MT/s
Heartbeat CPU 0 instructions: 10000003 cycles: 6086217 heartbeat IPC: 1.643 cumulative IPC: 1.643 (Simulation time: 00 hr 01 min 01 sec)
Warmup finished CPU 0 instructions: 20000002 cycles: 12017076 cumulative IPC: 1.664 (Simulation time: 00 hr 02 min 08 sec)
Warmup complete CPU 0 instructions: 20000002 cycles: 12017076 cumulative IPC: 1.664 (Simulation time: 00 hr 02 min 08 sec)
Heartbeat CPU 0 instructions: 20000005 cycles: 12017099 heartbeat IPC: 1.686 cumulative IPC: 0.1304 (Simulation time: 00 hr 02 min 08 sec)
Heartbeat CPU 0 instructions: 30000008 cycles: 29376546 heartbeat IPC: 0.5761 cumulative IPC: 0.5761 (Simulation time: 00 hr 04 min 17 sec)
Heartbeat CPU 0 instructions: 40000009 cycles: 38559257 heartbeat IPC: 1.089 cumulative IPC: 0.7535 (Simulation time: 00 hr 05 min 33 sec)
Heartbeat CPU 0 instructions: 50000009 cycles: 51978445 heartbeat IPC: 0.7452 cumulative IPC: 0.7507 (Simulation time: 00 hr 07 min 15 sec)
Heartbeat CPU 0 instructions: 60000010 cycles: 73741377 heartbeat IPC: 0.4595 cumulative IPC: 0.648 (Simulation time: 00 hr 09 min 50 sec)
Simulation finished CPU 0 instructions: 50000000 cycles: 74717236 cumulative IPC: 0.6692 (Simulation time: 00 hr 11 min 29 sec)
Simulation complete CPU 0 instructions: 50000000 cycles: 74717236 cumulative IPC: 0.6692 (Simulation time: 00 hr 11 min 29 sec)

ChampSim completed all CPUs

=== Simulation ===
CPU 0 runs traces/429.mcf-217B.champsimtrace.xz

Region of Interest Statistics

CPU 0 cumulative IPC: 0.6692 instructions: 50000000 cycles: 74717236
CPU 0 Branch Prediction Accuracy: 98.95% MPKI: 1.194 Average ROB Occupancy at Mispredict: 120.6
Branch type MPKI
BRANCH_DIRECT_JUMP: 0
BRANCH_INDIRECT: 0
BRANCH_CONDITIONAL: 1.194
BRANCH_DIRECT_CALL: 0
BRANCH_INDIRECT_CALL: 0
BRANCH_RETURN: 0

cpu0->cpu0_STLB TOTAL        ACCESS:      57972 HIT:      56122 MISS:       1850 MSHR_MERGE:          0
cpu0->cpu0_STLB LOAD         ACCESS:      57972 HIT:      56122 MISS:       1850 MSHR_MERGE:          0
cpu0->cpu0_STLB RFO          ACCESS:          0 HIT:          0 MISS:          0 MSHR_MERGE:          0
cpu0->cpu0_STLB PREFETCH     ACCESS:          0 HIT:          0 MISS:          0 MSHR_MERGE:          0
cpu0->cpu0_STLB WRITE        ACCESS:          0 HIT:          0 MISS:          0 MSHR_MERGE:          0
cpu0->cpu0_STLB TRANSLATION  ACCESS:          0 HIT:          0 MISS:          0 MSHR_MERGE:          0
cpu0->cpu0_STLB PREFETCH REQUESTED:          0 ISSUED:          0 USEFUL:          0 USELESS:          0
cpu0->cpu0_STLB AVERAGE MISS LATENCY: 586.8 cycles
cpu0->cpu0_L2C TOTAL        ACCESS:    9866297 HIT:    5795058 MISS:    4071239 MSHR_MERGE:    1282871
cpu0->cpu0_L2C LOAD         ACCESS:    2598485 HIT:    1834411 MISS:     764074 MSHR_MERGE:     481609
cpu0->cpu0_L2C RFO          ACCESS:       1567 HIT:       1352 MISS:        215 MSHR_MERGE:          0
cpu0->cpu0_L2C PREFETCH     ACCESS:    7166640 HIT:    3863516 MISS:    3303124 MSHR_MERGE:     801262
cpu0->cpu0_L2C WRITE        ACCESS:      96214 HIT:      95285 MISS:        929 MSHR_MERGE:          0
cpu0->cpu0_L2C TRANSLATION  ACCESS:       3391 HIT:        494 MISS:       2897 MSHR_MERGE:          0
cpu0->cpu0_L2C PREFETCH REQUESTED:    7166666 ISSUED:    7166630 USEFUL:    2296578 USELESS:     205128
cpu0->cpu0_L2C AVERAGE MISS LATENCY: 66.64 cycles
cpu0->cpu0_L1I TOTAL        ACCESS:    9416300 HIT:    9416300 MISS:          0 MSHR_MERGE:          0
cpu0->cpu0_L1I LOAD         ACCESS:    9416300 HIT:    9416300 MISS:          0 MSHR_MERGE:          0
cpu0->cpu0_L1I RFO          ACCESS:          0 HIT:          0 MISS:          0 MSHR_MERGE:          0
cpu0->cpu0_L1I PREFETCH     ACCESS:          0 HIT:          0 MISS:          0 MSHR_MERGE:          0
cpu0->cpu0_L1I WRITE        ACCESS:          0 HIT:          0 MISS:          0 MSHR_MERGE:          0
cpu0->cpu0_L1I TRANSLATION  ACCESS:          0 HIT:          0 MISS:          0 MSHR_MERGE:          0
cpu0->cpu0_L1I PREFETCH REQUESTED:          0 ISSUED:          0 USEFUL:          0 USELESS:          0
cpu0->cpu0_L1I AVERAGE MISS LATENCY: - cycles
cpu0->cpu0_L1D TOTAL        ACCESS:   16473171 HIT:   13780565 MISS:    2692606 MSHR_MERGE:      89133
cpu0->cpu0_L1D LOAD         ACCESS:    8596910 HIT:    5911497 MISS:    2685413 MSHR_MERGE:      86898
cpu0->cpu0_L1D RFO          ACCESS:          0 HIT:          0 MISS:          0 MSHR_MERGE:          0
cpu0->cpu0_L1D PREFETCH     ACCESS:          0 HIT:          0 MISS:          0 MSHR_MERGE:          0
cpu0->cpu0_L1D WRITE        ACCESS:    7872554 HIT:    7868752 MISS:       3802 MSHR_MERGE:       2235
cpu0->cpu0_L1D TRANSLATION  ACCESS:       3707 HIT:        316 MISS:       3391 MSHR_MERGE:          0
cpu0->cpu0_L1D PREFETCH REQUESTED:          0 ISSUED:          0 USEFUL:          0 USELESS:          0
cpu0->cpu0_L1D AVERAGE MISS LATENCY: 27.96 cycles
cpu0->cpu0_ITLB TOTAL        ACCESS:    8246829 HIT:    8246829 MISS:          0 MSHR_MERGE:          0
cpu0->cpu0_ITLB LOAD         ACCESS:    8246829 HIT:    8246829 MISS:          0 MSHR_MERGE:          0
cpu0->cpu0_ITLB RFO          ACCESS:          0 HIT:          0 MISS:          0 MSHR_MERGE:          0
cpu0->cpu0_ITLB PREFETCH     ACCESS:          0 HIT:          0 MISS:          0 MSHR_MERGE:          0
cpu0->cpu0_ITLB WRITE        ACCESS:          0 HIT:          0 MISS:          0 MSHR_MERGE:          0
cpu0->cpu0_ITLB TRANSLATION  ACCESS:          0 HIT:          0 MISS:          0 MSHR_MERGE:          0
cpu0->cpu0_ITLB PREFETCH REQUESTED:          0 ISSUED:          0 USEFUL:          0 USELESS:          0
cpu0->cpu0_ITLB AVERAGE MISS LATENCY: - cycles
cpu0->cpu0_DTLB TOTAL        ACCESS:   14949176 HIT:   14875311 MISS:      73865 MSHR_MERGE:      15893
cpu0->cpu0_DTLB LOAD         ACCESS:   14949176 HIT:   14875311 MISS:      73865 MSHR_MERGE:      15893
cpu0->cpu0_DTLB RFO          ACCESS:          0 HIT:          0 MISS:          0 MSHR_MERGE:          0
cpu0->cpu0_DTLB PREFETCH     ACCESS:          0 HIT:          0 MISS:          0 MSHR_MERGE:          0
cpu0->cpu0_DTLB WRITE        ACCESS:          0 HIT:          0 MISS:          0 MSHR_MERGE:          0
cpu0->cpu0_DTLB TRANSLATION  ACCESS:          0 HIT:          0 MISS:          0 MSHR_MERGE:          0
cpu0->cpu0_DTLB PREFETCH REQUESTED:          0 ISSUED:          0 USEFUL:          0 USELESS:          0
cpu0->cpu0_DTLB AVERAGE MISS LATENCY: 22.76 cycles
cpu0->LLC TOTAL        ACCESS:    2868304 HIT:     683057 MISS:    2185247 MSHR_MERGE:          0
cpu0->LLC LOAD         ACCESS:     282465 HIT:      45115 MISS:     237350 MSHR_MERGE:          0
cpu0->LLC RFO          ACCESS:        215 HIT:        185 MISS:         30 MSHR_MERGE:          0
cpu0->LLC PREFETCH     ACCESS:    2501859 HIT:     616505 MISS:    1885354 MSHR_MERGE:          0
cpu0->LLC WRITE        ACCESS:      80868 HIT:      21242 MISS:      59626 MSHR_MERGE:          0
cpu0->LLC TRANSLATION  ACCESS:       2897 HIT:         10 MISS:       2887 MSHR_MERGE:          0
cpu0->LLC PREFETCH REQUESTED:          0 ISSUED:          0 USEFUL:          0 USELESS:          0
cpu0->LLC AVERAGE MISS LATENCY: 74.15 cycles

DRAM Statistics

Channel 0 RQ ROW_BUFFER_HIT:     305517
  ROW_BUFFER_MISS:    1819992
  AVG DBUS CONGESTED CYCLE: 6.273
Channel 0 WQ ROW_BUFFER_HIT:      10736
  ROW_BUFFER_MISS:      65404
  FULL:          0
Channel 0 REFRESHES ISSUED:       6226
