[VMEM] WARNING: physical memory size is smaller than virtual memory size.
WARNING: option --warmup_instructions is deprecated. Use --warmup-instructions instead.
WARNING: option --simulation_instructions is deprecated. Use --simulation-instructions instead.

*** ChampSim Multicore Out-of-Order Simulator ***
Warmup Instructions: 20000000
Simulation Instructions: 50000000
Number of CPUs: 1
Page size: 8192

Off-chip DRAM Size: 16 GiB Channels: 1 Width: 64-bit Data Rate: 3205 MT/s
Heartbeat CPU 0 instructions: 10000000 cycles: 8239530 heartbeat IPC: 1.214 cumulative IPC: 1.214 (Simulation time: 00 hr 01 min 20 sec)
Heartbeat CPU 0 instructions: 20000000 cycles: 15265716 heartbeat IPC: 1.423 cumulative IPC: 1.31 (Simulation time: 00 hr 02 min 34 sec)
Warmup finished CPU 0 instructions: 20000000 cycles: 15265716 cumulative IPC: 1.31 (Simulation time: 00 hr 02 min 34 sec)
Warmup complete CPU 0 instructions: 20000000 cycles: 15265716 cumulative IPC: 1.31 (Simulation time: 00 hr 02 min 34 sec)
Heartbeat CPU 0 instructions: 30000002 cycles: 37070923 heartbeat IPC: 0.4586 cumulative IPC: 0.4586 (Simulation time: 00 hr 04 min 53 sec)
Heartbeat CPU 0 instructions: 40000004 cycles: 58951891 heartbeat IPC: 0.457 cumulative IPC: 0.4578 (Simulation time: 00 hr 07 min 11 sec)
Heartbeat CPU 0 instructions: 50000004 cycles: 80685161 heartbeat IPC: 0.4601 cumulative IPC: 0.4586 (Simulation time: 00 hr 09 min 30 sec)
Heartbeat CPU 0 instructions: 60000007 cycles: 101314817 heartbeat IPC: 0.4847 cumulative IPC: 0.4649 (Simulation time: 00 hr 11 min 46 sec)
Simulation finished CPU 0 instructions: 50000001 cycles: 106176593 cumulative IPC: 0.4709 (Simulation time: 00 hr 13 min 59 sec)
Simulation complete CPU 0 instructions: 50000001 cycles: 106176593 cumulative IPC: 0.4709 (Simulation time: 00 hr 13 min 59 sec)

ChampSim completed all CPUs

=== Simulation ===
CPU 0 runs traces/620.omnetpp_s-874B.champsimtrace.xz

Region of Interest Statistics

CPU 0 cumulative IPC: 0.4709 instructions: 50000001 cycles: 106176593
CPU 0 Branch Prediction Accuracy: 96.16% MPKI: 7.99 Average ROB Occupancy at Mispredict: 58.94
Branch type MPKI
BRANCH_DIRECT_JUMP: 0.9384
BRANCH_INDIRECT: 0.1208
BRANCH_CONDITIONAL: 5.805
BRANCH_DIRECT_CALL: 0.00236
BRANCH_INDIRECT_CALL: 0.7298
BRANCH_RETURN: 0.3936

cpu0->cpu0_STLB TOTAL        ACCESS:     828792 HIT:     691695 MISS:     137097 MSHR_MERGE:          0
cpu0->cpu0_STLB LOAD         ACCESS:     828792 HIT:     691695 MISS:     137097 MSHR_MERGE:          0
cpu0->cpu0_STLB RFO          ACCESS:          0 HIT:          0 MISS:          0 MSHR_MERGE:          0
cpu0->cpu0_STLB PREFETCH     ACCESS:          0 HIT:          0 MISS:          0 MSHR_MERGE:          0
cpu0->cpu0_STLB WRITE        ACCESS:          0 HIT:          0 MISS:          0 MSHR_MERGE:          0
cpu0->cpu0_STLB TRANSLATION  ACCESS:          0 HIT:          0 MISS:          0 MSHR_MERGE:          0
cpu0->cpu0_STLB PREFETCH REQUESTED:          0 ISSUED:          0 USEFUL:          0 USELESS:          0
cpu0->cpu0_STLB AVERAGE MISS LATENCY: 215.6 cycles
cpu0->cpu0_L2C TOTAL        ACCESS:    1973538 HIT:     879318 MISS:    1094220 MSHR_MERGE:       2582
cpu0->cpu0_L2C LOAD         ACCESS:     933859 HIT:     288441 MISS:     645418 MSHR_MERGE:         21
cpu0->cpu0_L2C RFO          ACCESS:     139167 HIT:      31996 MISS:     107171 MSHR_MERGE:          0
cpu0->cpu0_L2C PREFETCH     ACCESS:     100351 HIT:      31976 MISS:      68375 MSHR_MERGE:       2561
cpu0->cpu0_L2C WRITE        ACCESS:     506854 HIT:     504459 MISS:       2395 MSHR_MERGE:          0
cpu0->cpu0_L2C TRANSLATION  ACCESS:     293307 HIT:      22446 MISS:     270861 MSHR_MERGE:          0
cpu0->cpu0_L2C PREFETCH REQUESTED:     100351 ISSUED:     100351 USEFUL:      14568 USELESS:      51151
cpu0->cpu0_L2C AVERAGE MISS LATENCY: 83.21 cycles
cpu0->cpu0_L1I TOTAL        ACCESS:    7919504 HIT:    7894272 MISS:      25232 MSHR_MERGE:       6754
cpu0->cpu0_L1I LOAD         ACCESS:    7919504 HIT:    7894272 MISS:      25232 MSHR_MERGE:       6754
cpu0->cpu0_L1I RFO          ACCESS:          0 HIT:          0 MISS:          0 MSHR_MERGE:          0
cpu0->cpu0_L1I PREFETCH     ACCESS:          0 HIT:          0 MISS:          0 MSHR_MERGE:          0
cpu0->cpu0_L1I WRITE        ACCESS:          0 HIT:          0 MISS:          0 MSHR_MERGE:          0
cpu0->cpu0_L1I TRANSLATION  ACCESS:          0 HIT:          0 MISS:          0 MSHR_MERGE:          0
cpu0->cpu0_L1I PREFETCH REQUESTED:          0 ISSUED:          0 USEFUL:          0 USELESS:          0
cpu0->cpu0_L1I AVERAGE MISS LATENCY: 22.72 cycles
cpu0->cpu0_L1D TOTAL        ACCESS:   18745763 HIT:   16942316 MISS:    1803447 MSHR_MERGE:     455581
cpu0->cpu0_L1D LOAD         ACCESS:    9411210 HIT:    8286980 MISS:    1124230 MSHR_MERGE:     208845
cpu0->cpu0_L1D RFO          ACCESS:          0 HIT:          0 MISS:          0 MSHR_MERGE:          0
cpu0->cpu0_L1D PREFETCH     ACCESS:          0 HIT:          0 MISS:          0 MSHR_MERGE:          0
cpu0->cpu0_L1D WRITE        ACCESS:    9033293 HIT:    8647680 MISS:     385613 MSHR_MERGE:     246439
cpu0->cpu0_L1D TRANSLATION  ACCESS:     301260 HIT:       7656 MISS:     293604 MSHR_MERGE:        297
cpu0->cpu0_L1D PREFETCH REQUESTED:          0 ISSUED:          0 USEFUL:          0 USELESS:          0
cpu0->cpu0_L1D AVERAGE MISS LATENCY: 71.89 cycles
cpu0->cpu0_ITLB TOTAL        ACCESS:    7261791 HIT:    7261587 MISS:        204 MSHR_MERGE:        100
cpu0->cpu0_ITLB LOAD         ACCESS:    7261791 HIT:    7261587 MISS:        204 MSHR_MERGE:        100
cpu0->cpu0_ITLB RFO          ACCESS:          0 HIT:          0 MISS:          0 MSHR_MERGE:          0
cpu0->cpu0_ITLB PREFETCH     ACCESS:          0 HIT:          0 MISS:          0 MSHR_MERGE:          0
cpu0->cpu0_ITLB WRITE        ACCESS:          0 HIT:          0 MISS:          0 MSHR_MERGE:          0
cpu0->cpu0_ITLB TRANSLATION  ACCESS:          0 HIT:          0 MISS:          0 MSHR_MERGE:          0
cpu0->cpu0_ITLB PREFETCH REQUESTED:          0 ISSUED:          0 USEFUL:          0 USELESS:          0
cpu0->cpu0_ITLB AVERAGE MISS LATENCY: 148.6 cycles
cpu0->cpu0_DTLB TOTAL        ACCESS:   17183656 HIT:   16232002 MISS:     951654 MSHR_MERGE:     122965
cpu0->cpu0_DTLB LOAD         ACCESS:   17183656 HIT:   16232002 MISS:     951654 MSHR_MERGE:     122965
cpu0->cpu0_DTLB RFO          ACCESS:          0 HIT:          0 MISS:          0 MSHR_MERGE:          0
cpu0->cpu0_DTLB PREFETCH     ACCESS:          0 HIT:          0 MISS:          0 MSHR_MERGE:          0
cpu0->cpu0_DTLB WRITE        ACCESS:          0 HIT:          0 MISS:          0 MSHR_MERGE:          0
cpu0->cpu0_DTLB TRANSLATION  ACCESS:          0 HIT:          0 MISS:          0 MSHR_MERGE:          0
cpu0->cpu0_DTLB PREFETCH REQUESTED:          0 ISSUED:          0 USEFUL:          0 USELESS:          0
cpu0->cpu0_DTLB AVERAGE MISS LATENCY: 39.82 cycles
cpu0->LLC TOTAL        ACCESS:    1471644 HIT:     340598 MISS:    1131046 MSHR_MERGE:          0
cpu0->LLC LOAD         ACCESS:     645397 HIT:     131315 MISS:     514082 MSHR_MERGE:          0
cpu0->LLC RFO          ACCESS:     107171 HIT:      23740 MISS:      83431 MSHR_MERGE:          0
cpu0->LLC PREFETCH     ACCESS:      65814 HIT:       2205 MISS:      63609 MSHR_MERGE:          0
cpu0->LLC WRITE        ACCESS:     382401 HIT:     127305 MISS:     255096 MSHR_MERGE:          0
cpu0->LLC TRANSLATION  ACCESS:     270861 HIT:      56033 MISS:     214828 MSHR_MERGE:          0
cpu0->LLC PREFETCH REQUESTED:          0 ISSUED:          0 USEFUL:          0 USELESS:          0
cpu0->LLC AVERAGE MISS LATENCY: 66.01 cycles

DRAM Statistics

Channel 0 RQ ROW_BUFFER_HIT:      19915
  ROW_BUFFER_MISS:     856026
  AVG DBUS CONGESTED CYCLE: 11.64
Channel 0 WQ ROW_BUFFER_HIT:      42899
  ROW_BUFFER_MISS:     237080
  FULL:          0
Channel 0 REFRESHES ISSUED:       8848
