[VMEM] WARNING: physical memory size is smaller than virtual memory size.
WARNING: option --warmup_instructions is deprecated. Use --warmup-instructions instead.
WARNING: option --simulation_instructions is deprecated. Use --simulation-instructions instead.

*** ChampSim Multicore Out-of-Order Simulator ***
Warmup Instructions: 20000000
Simulation Instructions: 50000000
Number of CPUs: 1
Page size: 8192

Off-chip DRAM Size: 16 GiB Channels: 1 Width: 64-bit Data Rate: 3205 MT/s
Heartbeat CPU 0 instructions: 10000000 cycles: 8327602 heartbeat IPC: 1.201 cumulative IPC: 1.201 (Simulation time: 00 hr 01 min 07 sec)
Heartbeat CPU 0 instructions: 20000000 cycles: 15441964 heartbeat IPC: 1.406 cumulative IPC: 1.295 (Simulation time: 00 hr 02 min 08 sec)
Warmup finished CPU 0 instructions: 20000000 cycles: 15441964 cumulative IPC: 1.295 (Simulation time: 00 hr 02 min 08 sec)
Warmup complete CPU 0 instructions: 20000000 cycles: 15441964 cumulative IPC: 1.295 (Simulation time: 00 hr 02 min 08 sec)
Heartbeat CPU 0 instructions: 30000002 cycles: 43782139 heartbeat IPC: 0.3529 cumulative IPC: 0.3529 (Simulation time: 00 hr 04 min 25 sec)
Heartbeat CPU 0 instructions: 40000004 cycles: 72226615 heartbeat IPC: 0.3516 cumulative IPC: 0.3522 (Simulation time: 00 hr 06 min 46 sec)
Heartbeat CPU 0 instructions: 50000004 cycles: 100727536 heartbeat IPC: 0.3509 cumulative IPC: 0.3518 (Simulation time: 00 hr 09 min 10 sec)
Heartbeat CPU 0 instructions: 60000007 cycles: 127690568 heartbeat IPC: 0.3709 cumulative IPC: 0.3564 (Simulation time: 00 hr 11 min 29 sec)
Simulation finished CPU 0 instructions: 50000001 cycles: 138483558 cumulative IPC: 0.3611 (Simulation time: 00 hr 13 min 44 sec)
Simulation complete CPU 0 instructions: 50000001 cycles: 138483558 cumulative IPC: 0.3611 (Simulation time: 00 hr 13 min 44 sec)

ChampSim completed all CPUs

=== Simulation ===
CPU 0 runs traces/620.omnetpp_s-874B.champsimtrace.xz

Region of Interest Statistics

CPU 0 cumulative IPC: 0.3611 instructions: 50000001 cycles: 138483558
CPU 0 Branch Prediction Accuracy: 96.16% MPKI: 7.99 Average ROB Occupancy at Mispredict: 51.85
Branch type MPKI
BRANCH_DIRECT_JUMP: 0.9384
BRANCH_INDIRECT: 0.1208
BRANCH_CONDITIONAL: 5.805
BRANCH_DIRECT_CALL: 0.00236
BRANCH_INDIRECT_CALL: 0.7298
BRANCH_RETURN: 0.3936

cpu0->cpu0_STLB TOTAL        ACCESS:     828145 HIT:     691049 MISS:     137096 MSHR_MERGE:          0
cpu0->cpu0_STLB LOAD         ACCESS:     828145 HIT:     691049 MISS:     137096 MSHR_MERGE:          0
cpu0->cpu0_STLB RFO          ACCESS:          0 HIT:          0 MISS:          0 MSHR_MERGE:          0
cpu0->cpu0_STLB PREFETCH     ACCESS:          0 HIT:          0 MISS:          0 MSHR_MERGE:          0
cpu0->cpu0_STLB WRITE        ACCESS:          0 HIT:          0 MISS:          0 MSHR_MERGE:          0
cpu0->cpu0_STLB TRANSLATION  ACCESS:          0 HIT:          0 MISS:          0 MSHR_MERGE:          0
cpu0->cpu0_STLB PREFETCH REQUESTED:          0 ISSUED:          0 USEFUL:          0 USELESS:          0
cpu0->cpu0_STLB AVERAGE MISS LATENCY: 341.1 cycles
cpu0->cpu0_L2C TOTAL        ACCESS:    3519053 HIT:    1542598 MISS:    1976455 MSHR_MERGE:     219060
cpu0->cpu0_L2C LOAD         ACCESS:     933754 HIT:     377780 MISS:     555974 MSHR_MERGE:      27544
cpu0->cpu0_L2C RFO          ACCESS:     138302 HIT:      68005 MISS:      70297 MSHR_MERGE:       2795
cpu0->cpu0_L2C PREFETCH     ACCESS:    1645203 HIT:     576056 MISS:    1069147 MSHR_MERGE:     188721
cpu0->cpu0_L2C WRITE        ACCESS:     508500 HIT:     504710 MISS:       3790 MSHR_MERGE:          0
cpu0->cpu0_L2C TRANSLATION  ACCESS:     293294 HIT:      16047 MISS:     277247 MSHR_MERGE:          0
cpu0->cpu0_L2C PREFETCH REQUESTED:    1647145 ISSUED:    1645203 USEFUL:     218757 USELESS:     659604
cpu0->cpu0_L2C AVERAGE MISS LATENCY: 137.6 cycles
cpu0->cpu0_L1I TOTAL        ACCESS:    8241232 HIT:    8215821 MISS:      25411 MSHR_MERGE:       6960
cpu0->cpu0_L1I LOAD         ACCESS:    8241232 HIT:    8215821 MISS:      25411 MSHR_MERGE:       6960
cpu0->cpu0_L1I RFO          ACCESS:          0 HIT:          0 MISS:          0 MSHR_MERGE:          0
cpu0->cpu0_L1I PREFETCH     ACCESS:          0 HIT:          0 MISS:          0 MSHR_MERGE:          0
cpu0->cpu0_L1I WRITE        ACCESS:          0 HIT:          0 MISS:          0 MSHR_MERGE:          0
cpu0->cpu0_L1I TRANSLATION  ACCESS:          0 HIT:          0 MISS:          0 MSHR_MERGE:          0
cpu0->cpu0_L1I PREFETCH REQUESTED:          0 ISSUED:          0 USEFUL:          0 USELESS:          0
cpu0->cpu0_L1I AVERAGE MISS LATENCY: 24.9 cycles
cpu0->cpu0_L1D TOTAL        ACCESS:   18832499 HIT:   17120389 MISS:    1712110 MSHR_MERGE:     365206
cpu0->cpu0_L1D LOAD         ACCESS:    9491000 HIT:    8395831 MISS:    1095169 MSHR_MERGE:     179864
cpu0->cpu0_L1D RFO          ACCESS:          0 HIT:          0 MISS:          0 MSHR_MERGE:          0
cpu0->cpu0_L1D PREFETCH     ACCESS:          0 HIT:          0 MISS:          0 MSHR_MERGE:          0
cpu0->cpu0_L1D WRITE        ACCESS:    9040228 HIT:    8716905 MISS:     323323 MSHR_MERGE:     185018
cpu0->cpu0_L1D TRANSLATION  ACCESS:     301271 HIT:       7653 MISS:     293618 MSHR_MERGE:        324
cpu0->cpu0_L1D PREFETCH REQUESTED:          0 ISSUED:          0 USEFUL:          0 USELESS:          0
cpu0->cpu0_L1D AVERAGE MISS LATENCY: 101.1 cycles
cpu0->cpu0_ITLB TOTAL        ACCESS:    7590348 HIT:    7590144 MISS:        204 MSHR_MERGE:        100
cpu0->cpu0_ITLB LOAD         ACCESS:    7590348 HIT:    7590144 MISS:        204 MSHR_MERGE:        100
cpu0->cpu0_ITLB RFO          ACCESS:          0 HIT:          0 MISS:          0 MSHR_MERGE:          0
cpu0->cpu0_ITLB PREFETCH     ACCESS:          0 HIT:          0 MISS:          0 MSHR_MERGE:          0
cpu0->cpu0_ITLB WRITE        ACCESS:          0 HIT:          0 MISS:          0 MSHR_MERGE:          0
cpu0->cpu0_ITLB TRANSLATION  ACCESS:          0 HIT:          0 MISS:          0 MSHR_MERGE:          0
cpu0->cpu0_ITLB PREFETCH REQUESTED:          0 ISSUED:          0 USEFUL:          0 USELESS:          0
cpu0->cpu0_ITLB AVERAGE MISS LATENCY: 197 cycles
cpu0->cpu0_DTLB TOTAL        ACCESS:   17250287 HIT:   16305281 MISS:     945006 MSHR_MERGE:     116964
cpu0->cpu0_DTLB LOAD         ACCESS:   17250287 HIT:   16305281 MISS:     945006 MSHR_MERGE:     116964
cpu0->cpu0_DTLB RFO          ACCESS:          0 HIT:          0 MISS:          0 MSHR_MERGE:          0
cpu0->cpu0_DTLB PREFETCH     ACCESS:          0 HIT:          0 MISS:          0 MSHR_MERGE:          0
cpu0->cpu0_DTLB WRITE        ACCESS:          0 HIT:          0 MISS:          0 MSHR_MERGE:          0
cpu0->cpu0_DTLB TRANSLATION  ACCESS:          0 HIT:          0 MISS:          0 MSHR_MERGE:          0
cpu0->cpu0_DTLB PREFETCH REQUESTED:          0 ISSUED:          0 USEFUL:          0 USELESS:          0
cpu0->cpu0_DTLB AVERAGE MISS LATENCY: 60.61 cycles
cpu0->LLC TOTAL        ACCESS:    2158540 HIT:     505932 MISS:    1652608 MSHR_MERGE:        409
cpu0->LLC LOAD         ACCESS:     528430 HIT:     126283 MISS:     402147 MSHR_MERGE:          2
cpu0->LLC RFO          ACCESS:      67502 HIT:       9845 MISS:      57657 MSHR_MERGE:          1
cpu0->LLC PREFETCH     ACCESS:     880425 HIT:     170549 MISS:     709876 MSHR_MERGE:        406
cpu0->LLC WRITE        ACCESS:     404936 HIT:     146974 MISS:     257962 MSHR_MERGE:          0
cpu0->LLC TRANSLATION  ACCESS:     277247 HIT:      52281 MISS:     224966 MSHR_MERGE:          0
cpu0->LLC PREFETCH REQUESTED:          0 ISSUED:          0 USEFUL:          0 USELESS:          0
cpu0->LLC AVERAGE MISS LATENCY: 115.7 cycles

DRAM Statistics

Channel 0 RQ ROW_BUFFER_HIT:      26898
  ROW_BUFFER_MISS:    1367213
  AVG DBUS CONGESTED CYCLE: 19.49
Channel 0 WQ ROW_BUFFER_HIT:      80069
  ROW_BUFFER_MISS:     213253
  FULL:          0
Channel 0 REFRESHES ISSUED:      11541
