[VMEM] WARNING: physical memory size is smaller than virtual memory size.
WARNING: option --warmup_instructions is deprecated. Use --warmup-instructions instead.
WARNING: option --simulation_instructions is deprecated. Use --simulation-instructions instead.

*** ChampSim Multicore Out-of-Order Simulator ***
Warmup Instructions: 20000000
Simulation Instructions: 50000000
Number of CPUs: 1
Page size: 8192

Off-chip DRAM Size: 16 GiB Channels: 1 Width: 64-bit Data Rate: 3205 MT/s
Heartbeat CPU 0 instructions: 10000001 cycles: 4855115 heartbeat IPC: 2.06 cumulative IPC: 2.06 (Simulation time: 00 hr 00 min 47 sec)
Heartbeat CPU 0 instructions: 20000002 cycles: 9650086 heartbeat IPC: 2.086 cumulative IPC: 2.073 (Simulation time: 00 hr 01 min 34 sec)
Warmup finished CPU 0 instructions: 20000002 cycles: 9650086 cumulative IPC: 2.073 (Simulation time: 00 hr 01 min 34 sec)
Warmup complete CPU 0 instructions: 20000002 cycles: 9650086 cumulative IPC: 2.073 (Simulation time: 00 hr 01 min 34 sec)
Heartbeat CPU 0 instructions: 30000005 cycles: 39168065 heartbeat IPC: 0.3388 cumulative IPC: 0.3388 (Simulation time: 00 hr 03 min 39 sec)
Heartbeat CPU 0 instructions: 40000005 cycles: 68561379 heartbeat IPC: 0.3402 cumulative IPC: 0.3395 (Simulation time: 00 hr 05 min 44 sec)
Heartbeat CPU 0 instructions: 50000006 cycles: 98363726 heartbeat IPC: 0.3355 cumulative IPC: 0.3382 (Simulation time: 00 hr 07 min 49 sec)
Heartbeat CPU 0 instructions: 60000007 cycles: 127923737 heartbeat IPC: 0.3383 cumulative IPC: 0.3382 (Simulation time: 00 hr 09 min 58 sec)
Simulation finished CPU 0 instructions: 50000002 cycles: 148171047 cumulative IPC: 0.3374 (Simulation time: 00 hr 12 min 07 sec)
Simulation complete CPU 0 instructions: 50000002 cycles: 148171047 cumulative IPC: 0.3374 (Simulation time: 00 hr 12 min 07 sec)

ChampSim completed all CPUs

=== Simulation ===
CPU 0 runs traces/605.mcf_s-1152B.champsimtrace.xz

Region of Interest Statistics

CPU 0 cumulative IPC: 0.3374 instructions: 50000002 cycles: 148171047
CPU 0 Branch Prediction Accuracy: 90.19% MPKI: 24.48 Average ROB Occupancy at Mispredict: 20.61
Branch type MPKI
BRANCH_DIRECT_JUMP: 0.2057
BRANCH_INDIRECT: 0
BRANCH_CONDITIONAL: 24.27
BRANCH_DIRECT_CALL: 0
BRANCH_INDIRECT_CALL: 0.0036
BRANCH_RETURN: 2e-05

cpu0->cpu0_STLB TOTAL        ACCESS:    1006182 HIT:    1000425 MISS:       5757 MSHR_MERGE:          0
cpu0->cpu0_STLB LOAD         ACCESS:    1006182 HIT:    1000425 MISS:       5757 MSHR_MERGE:          0
cpu0->cpu0_STLB RFO          ACCESS:          0 HIT:          0 MISS:          0 MSHR_MERGE:          0
cpu0->cpu0_STLB PREFETCH     ACCESS:          0 HIT:          0 MISS:          0 MSHR_MERGE:          0
cpu0->cpu0_STLB WRITE        ACCESS:          0 HIT:          0 MISS:          0 MSHR_MERGE:          0
cpu0->cpu0_STLB TRANSLATION  ACCESS:          0 HIT:          0 MISS:          0 MSHR_MERGE:          0
cpu0->cpu0_STLB PREFETCH REQUESTED:          0 ISSUED:          0 USEFUL:          0 USELESS:          0
cpu0->cpu0_STLB AVERAGE MISS LATENCY: 629.2 cycles
cpu0->cpu0_L2C TOTAL        ACCESS:    9085678 HIT:    3079855 MISS:    6005823 MSHR_MERGE:     260280
cpu0->cpu0_L2C LOAD         ACCESS:    2552726 HIT:    1084232 MISS:    1468494 MSHR_MERGE:      30280
cpu0->cpu0_L2C RFO          ACCESS:     187381 HIT:      25430 MISS:     161951 MSHR_MERGE:        120
cpu0->cpu0_L2C PREFETCH     ACCESS:    6071475 HIT:    1704506 MISS:    4366969 MSHR_MERGE:     229880
cpu0->cpu0_L2C WRITE        ACCESS:     265746 HIT:     264234 MISS:       1512 MSHR_MERGE:          0
cpu0->cpu0_L2C TRANSLATION  ACCESS:       8350 HIT:       1453 MISS:       6897 MSHR_MERGE:          0
cpu0->cpu0_L2C PREFETCH REQUESTED:    6455393 ISSUED:    6071475 USEFUL:     799450 USELESS:    3086514
cpu0->cpu0_L2C AVERAGE MISS LATENCY: 57.19 cycles
cpu0->cpu0_L1I TOTAL        ACCESS:     666722 HIT:     666722 MISS:          0 MSHR_MERGE:          0
cpu0->cpu0_L1I LOAD         ACCESS:     666722 HIT:     666722 MISS:          0 MSHR_MERGE:          0
cpu0->cpu0_L1I RFO          ACCESS:          0 HIT:          0 MISS:          0 MSHR_MERGE:          0
cpu0->cpu0_L1I PREFETCH     ACCESS:          0 HIT:          0 MISS:          0 MSHR_MERGE:          0
cpu0->cpu0_L1I WRITE        ACCESS:          0 HIT:          0 MISS:          0 MSHR_MERGE:          0
cpu0->cpu0_L1I TRANSLATION  ACCESS:          0 HIT:          0 MISS:          0 MSHR_MERGE:          0
cpu0->cpu0_L1I PREFETCH REQUESTED:          0 ISSUED:          0 USEFUL:          0 USELESS:          0
cpu0->cpu0_L1I AVERAGE MISS LATENCY: - cycles
cpu0->cpu0_L1D TOTAL        ACCESS:   17991372 HIT:   14384588 MISS:    3606784 MSHR_MERGE:     858322
cpu0->cpu0_L1D LOAD         ACCESS:   12814524 HIT:    9732823 MISS:    3081701 MSHR_MERGE:     528974
cpu0->cpu0_L1D RFO          ACCESS:          0 HIT:          0 MISS:          0 MSHR_MERGE:          0
cpu0->cpu0_L1D PREFETCH     ACCESS:          0 HIT:          0 MISS:          0 MSHR_MERGE:          0
cpu0->cpu0_L1D WRITE        ACCESS:    5165238 HIT:    4648505 MISS:     516733 MSHR_MERGE:     329348
cpu0->cpu0_L1D TRANSLATION  ACCESS:      11610 HIT:       3260 MISS:       8350 MSHR_MERGE:          0
cpu0->cpu0_L1D PREFETCH REQUESTED:          0 ISSUED:          0 USEFUL:          0 USELESS:          0
cpu0->cpu0_L1D AVERAGE MISS LATENCY: 43.1 cycles
cpu0->cpu0_ITLB TOTAL        ACCESS:     614507 HIT:     614507 MISS:          0 MSHR_MERGE:          0
cpu0->cpu0_ITLB LOAD         ACCESS:     614507 HIT:     614507 MISS:          0 MSHR_MERGE:          0
cpu0->cpu0_ITLB RFO          ACCESS:          0 HIT:          0 MISS:          0 MSHR_MERGE:          0
cpu0->cpu0_ITLB PREFETCH     ACCESS:          0 HIT:          0 MISS:          0 MSHR_MERGE:          0
cpu0->cpu0_ITLB WRITE        ACCESS:          0 HIT:          0 MISS:          0 MSHR_MERGE:          0
cpu0->cpu0_ITLB TRANSLATION  ACCESS:          0 HIT:          0 MISS:          0 MSHR_MERGE:          0
cpu0->cpu0_ITLB PREFETCH REQUESTED:          0 ISSUED:          0 USEFUL:          0 USELESS:          0
cpu0->cpu0_ITLB AVERAGE MISS LATENCY: - cycles
cpu0->cpu0_DTLB TOTAL        ACCESS:   16850555 HIT:   15656028 MISS:    1194527 MSHR_MERGE:     188345
cpu0->cpu0_DTLB LOAD         ACCESS:   16850555 HIT:   15656028 MISS:    1194527 MSHR_MERGE:     188345
cpu0->cpu0_DTLB RFO          ACCESS:          0 HIT:          0 MISS:          0 MSHR_MERGE:          0
cpu0->cpu0_DTLB PREFETCH     ACCESS:          0 HIT:          0 MISS:          0 MSHR_MERGE:          0
cpu0->cpu0_DTLB WRITE        ACCESS:          0 HIT:          0 MISS:          0 MSHR_MERGE:          0
cpu0->cpu0_DTLB TRANSLATION  ACCESS:          0 HIT:          0 MISS:          0 MSHR_MERGE:          0
cpu0->cpu0_DTLB PREFETCH REQUESTED:          0 ISSUED:          0 USEFUL:          0 USELESS:          0
cpu0->cpu0_DTLB AVERAGE MISS LATENCY: 7.606 cycles
cpu0->LLC TOTAL        ACCESS:    5964100 HIT:    3608732 MISS:    2355368 MSHR_MERGE:      46546
cpu0->LLC LOAD         ACCESS:    1438214 HIT:    1036370 MISS:     401844 MSHR_MERGE:        206
cpu0->LLC RFO          ACCESS:     161831 HIT:     146719 MISS:      15112 MSHR_MERGE:          0
cpu0->LLC PREFETCH     ACCESS:    4137088 HIT:    2222055 MISS:    1915033 MSHR_MERGE:      46340
cpu0->LLC WRITE        ACCESS:     220070 HIT:     203559 MISS:      16511 MSHR_MERGE:          0
cpu0->LLC TRANSLATION  ACCESS:       6897 HIT:         29 MISS:       6868 MSHR_MERGE:          0
cpu0->LLC PREFETCH REQUESTED:          0 ISSUED:          0 USEFUL:          0 USELESS:          0
cpu0->LLC AVERAGE MISS LATENCY: 147.6 cycles

DRAM Statistics

Channel 0 RQ ROW_BUFFER_HIT:      91585
  ROW_BUFFER_MISS:    2200577
  AVG DBUS CONGESTED CYCLE: 13.8
Channel 0 WQ ROW_BUFFER_HIT:       6714
  ROW_BUFFER_MISS:      20363
  FULL:          0
Channel 0 REFRESHES ISSUED:      12347
