[VMEM] WARNING: physical memory size is smaller than virtual memory size.
WARNING: option --warmup_instructions is deprecated. Use --warmup-instructions instead.
WARNING: option --simulation_instructions is deprecated. Use --simulation-instructions instead.

*** ChampSim Multicore Out-of-Order Simulator ***
Warmup Instructions: 20000000
Simulation Instructions: 50000000
Number of CPUs: 1
Page size: 8192

Off-chip DRAM Size: 16 GiB Channels: 1 Width: 64-bit Data Rate: 3205 MT/s
Heartbeat CPU 0 instructions: 10000003 cycles: 6162366 heartbeat IPC: 1.623 cumulative IPC: 1.623 (Simulation time: 00 hr 00 min 48 sec)
Warmup finished CPU 0 instructions: 20000001 cycles: 12130596 cumulative IPC: 1.649 (Simulation time: 00 hr 01 min 42 sec)
Warmup complete CPU 0 instructions: 20000001 cycles: 12130596 cumulative IPC: 1.649 (Simulation time: 00 hr 01 min 42 sec)
Heartbeat CPU 0 instructions: 20000005 cycles: 12130597 heartbeat IPC: 1.676 cumulative IPC: 4 (Simulation time: 00 hr 01 min 42 sec)
Heartbeat CPU 0 instructions: 30000008 cycles: 27739244 heartbeat IPC: 0.6407 cumulative IPC: 0.6407 (Simulation time: 00 hr 03 min 14 sec)
Heartbeat CPU 0 instructions: 40000010 cycles: 36913704 heartbeat IPC: 1.09 cumulative IPC: 0.807 (Simulation time: 00 hr 04 min 23 sec)
Heartbeat CPU 0 instructions: 50000010 cycles: 49522136 heartbeat IPC: 0.7931 cumulative IPC: 0.8023 (Simulation time: 00 hr 05 min 48 sec)
Heartbeat CPU 0 instructions: 60000010 cycles: 68540857 heartbeat IPC: 0.5258 cumulative IPC: 0.7091 (Simulation time: 00 hr 07 min 47 sec)
Simulation finished CPU 0 instructions: 50000001 cycles: 68598798 cumulative IPC: 0.7289 (Simulation time: 00 hr 09 min 13 sec)
Simulation complete CPU 0 instructions: 50000001 cycles: 68598798 cumulative IPC: 0.7289 (Simulation time: 00 hr 09 min 13 sec)

ChampSim completed all CPUs

=== Simulation ===
CPU 0 runs traces/429.mcf-217B.champsimtrace.xz

Region of Interest Statistics

CPU 0 cumulative IPC: 0.7289 instructions: 50000001 cycles: 68598798
CPU 0 Branch Prediction Accuracy: 98.95% MPKI: 1.194 Average ROB Occupancy at Mispredict: 124.2
Branch type MPKI
BRANCH_DIRECT_JUMP: 0
BRANCH_INDIRECT: 0
BRANCH_CONDITIONAL: 1.194
BRANCH_DIRECT_CALL: 0
BRANCH_INDIRECT_CALL: 0
BRANCH_RETURN: 0

cpu0->cpu0_STLB TOTAL        ACCESS:      58026 HIT:      56176 MISS:       1850 MSHR_MERGE:          0
cpu0->cpu0_STLB LOAD         ACCESS:      58026 HIT:      56176 MISS:       1850 MSHR_MERGE:          0
cpu0->cpu0_STLB RFO          ACCESS:          0 HIT:          0 MISS:          0 MSHR_MERGE:          0
cpu0->cpu0_STLB PREFETCH     ACCESS:          0 HIT:          0 MISS:          0 MSHR_MERGE:          0
cpu0->cpu0_STLB WRITE        ACCESS:          0 HIT:          0 MISS:          0 MSHR_MERGE:          0
cpu0->cpu0_STLB TRANSLATION  ACCESS:          0 HIT:          0 MISS:          0 MSHR_MERGE:          0
cpu0->cpu0_STLB PREFETCH REQUESTED:          0 ISSUED:          0 USEFUL:          0 USELESS:          0
cpu0->cpu0_STLB AVERAGE MISS LATENCY: 703.3 cycles
cpu0->cpu0_L2C TOTAL        ACCESS:   10130001 HIT:    4323035 MISS:    5806966 MSHR_MERGE:    2972230
cpu0->cpu0_L2C LOAD         ACCESS:    2598469 HIT:    1805833 MISS:     792636 MSHR_MERGE:     621702
cpu0->cpu0_L2C RFO          ACCESS:       1568 HIT:       1432 MISS:        136 MSHR_MERGE:          0
cpu0->cpu0_L2C PREFETCH     ACCESS:    7430357 HIT:    2419786 MISS:    5010571 MSHR_MERGE:    2350528
cpu0->cpu0_L2C WRITE        ACCESS:      96213 HIT:      95498 MISS:        715 MSHR_MERGE:          0
cpu0->cpu0_L2C TRANSLATION  ACCESS:       3394 HIT:        486 MISS:       2908 MSHR_MERGE:          0
cpu0->cpu0_L2C PREFETCH REQUESTED:    7435457 ISSUED:    7430342 USEFUL:    2408136 USELESS:     156176
cpu0->cpu0_L2C AVERAGE MISS LATENCY: 74.99 cycles
cpu0->cpu0_L1I TOTAL        ACCESS:    8993238 HIT:    8993238 MISS:          0 MSHR_MERGE:          0
cpu0->cpu0_L1I LOAD         ACCESS:    8993238 HIT:    8993238 MISS:          0 MSHR_MERGE:          0
cpu0->cpu0_L1I RFO          ACCESS:          0 HIT:          0 MISS:          0 MSHR_MERGE:          0
cpu0->cpu0_L1I PREFETCH     ACCESS:          0 HIT:          0 MISS:          0 MSHR_MERGE:          0
cpu0->cpu0_L1I WRITE        ACCESS:          0 HIT:          0 MISS:          0 MSHR_MERGE:          0
cpu0->cpu0_L1I TRANSLATION  ACCESS:          0 HIT:          0 MISS:          0 MSHR_MERGE:          0
cpu0->cpu0_L1I PREFETCH REQUESTED:          0 ISSUED:          0 USEFUL:          0 USELESS:          0
cpu0->cpu0_L1I AVERAGE MISS LATENCY: - cycles
cpu0->cpu0_L1D TOTAL        ACCESS:   16458519 HIT:   13757048 MISS:    2701471 MSHR_MERGE:      98008
cpu0->cpu0_L1D LOAD         ACCESS:    8599984 HIT:    5905546 MISS:    2694438 MSHR_MERGE:      95937
cpu0->cpu0_L1D RFO          ACCESS:          0 HIT:          0 MISS:          0 MSHR_MERGE:          0
cpu0->cpu0_L1D PREFETCH     ACCESS:          0 HIT:          0 MISS:          0 MSHR_MERGE:          0
cpu0->cpu0_L1D WRITE        ACCESS:    7854828 HIT:    7851189 MISS:       3639 MSHR_MERGE:       2071
cpu0->cpu0_L1D TRANSLATION  ACCESS:       3707 HIT:        313 MISS:       3394 MSHR_MERGE:          0
cpu0->cpu0_L1D PREFETCH REQUESTED:          0 ISSUED:          0 USEFUL:          0 USELESS:          0
cpu0->cpu0_L1D AVERAGE MISS LATENCY: 31.25 cycles
cpu0->cpu0_ITLB TOTAL        ACCESS:    7845935 HIT:    7845935 MISS:          0 MSHR_MERGE:          0
cpu0->cpu0_ITLB LOAD         ACCESS:    7845935 HIT:    7845935 MISS:          0 MSHR_MERGE:          0
cpu0->cpu0_ITLB RFO          ACCESS:          0 HIT:          0 MISS:          0 MSHR_MERGE:          0
cpu0->cpu0_ITLB PREFETCH     ACCESS:          0 HIT:          0 MISS:          0 MSHR_MERGE:          0
cpu0->cpu0_ITLB WRITE        ACCESS:          0 HIT:          0 MISS:          0 MSHR_MERGE:          0
cpu0->cpu0_ITLB TRANSLATION  ACCESS:          0 HIT:          0 MISS:          0 MSHR_MERGE:          0
cpu0->cpu0_ITLB PREFETCH REQUESTED:          0 ISSUED:          0 USEFUL:          0 USELESS:          0
cpu0->cpu0_ITLB AVERAGE MISS LATENCY: - cycles
cpu0->cpu0_DTLB TOTAL        ACCESS:   14953463 HIT:   14879974 MISS:      73489 MSHR_MERGE:      15463
cpu0->cpu0_DTLB LOAD         ACCESS:   14953463 HIT:   14879974 MISS:      73489 MSHR_MERGE:      15463
cpu0->cpu0_DTLB RFO          ACCESS:          0 HIT:          0 MISS:          0 MSHR_MERGE:          0
cpu0->cpu0_DTLB PREFETCH     ACCESS:          0 HIT:          0 MISS:          0 MSHR_MERGE:          0
cpu0->cpu0_DTLB WRITE        ACCESS:          0 HIT:          0 MISS:          0 MSHR_MERGE:          0
cpu0->cpu0_DTLB TRANSLATION  ACCESS:          0 HIT:          0 MISS:          0 MSHR_MERGE:          0
cpu0->cpu0_DTLB PREFETCH REQUESTED:          0 ISSUED:          0 USEFUL:          0 USELESS:          0
cpu0->cpu0_DTLB AVERAGE MISS LATENCY: 26.45 cycles
cpu0->LLC TOTAL        ACCESS:    2914747 HIT:     748388 MISS:    2166359 MSHR_MERGE:      58370
cpu0->LLC LOAD         ACCESS:     170934 HIT:      22230 MISS:     148704 MSHR_MERGE:         33
cpu0->LLC RFO          ACCESS:        136 HIT:        106 MISS:         30 MSHR_MERGE:          0
cpu0->LLC PREFETCH     ACCESS:    2660042 HIT:     707134 MISS:    1952908 MSHR_MERGE:      58337
cpu0->LLC WRITE        ACCESS:      80727 HIT:      18912 MISS:      61815 MSHR_MERGE:          0
cpu0->LLC TRANSLATION  ACCESS:       2908 HIT:          6 MISS:       2902 MSHR_MERGE:          0
cpu0->LLC PREFETCH REQUESTED:          0 ISSUED:          0 USEFUL:          0 USELESS:          0
cpu0->LLC AVERAGE MISS LATENCY: 113.2 cycles

DRAM Statistics

Channel 0 RQ ROW_BUFFER_HIT:     208505
  ROW_BUFFER_MISS:    1837214
  AVG DBUS CONGESTED CYCLE: 6.576
Channel 0 WQ ROW_BUFFER_HIT:      11626
  ROW_BUFFER_MISS:      65270
  FULL:          0
Channel 0 REFRESHES ISSUED:       5717
