[VMEM] WARNING: physical memory size is smaller than virtual memory size.
WARNING: option --warmup_instructions is deprecated. Use --warmup-instructions instead.
WARNING: option --simulation_instructions is deprecated. Use --simulation-instructions instead.

*** ChampSim Multicore Out-of-Order Simulator ***
Warmup Instructions: 20000000
Simulation Instructions: 50000000
Number of CPUs: 1
Page size: 8192

Off-chip DRAM Size: 64 GiB Channels: 4 Width: 64-bit Data Rate: 3205 MT/s
Heartbeat CPU 0 instructions: 10000000 cycles: 8242923 heartbeat IPC: 1.213 cumulative IPC: 1.213 (Simulation time: 00 hr 01 min 13 sec)
Heartbeat CPU 0 instructions: 20000000 cycles: 15272801 heartbeat IPC: 1.422 cumulative IPC: 1.31 (Simulation time: 00 hr 02 min 18 sec)
Warmup finished CPU 0 instructions: 20000000 cycles: 15272801 cumulative IPC: 1.31 (Simulation time: 00 hr 02 min 18 sec)
Warmup complete CPU 0 instructions: 20000000 cycles: 15272801 cumulative IPC: 1.31 (Simulation time: 00 hr 02 min 18 sec)
Heartbeat CPU 0 instructions: 30000002 cycles: 41294902 heartbeat IPC: 0.3843 cumulative IPC: 0.3843 (Simulation time: 00 hr 04 min 35 sec)
Heartbeat CPU 0 instructions: 40000004 cycles: 67436271 heartbeat IPC: 0.3825 cumulative IPC: 0.3834 (Simulation time: 00 hr 06 min 54 sec)
Heartbeat CPU 0 instructions: 50000004 cycles: 93441851 heartbeat IPC: 0.3845 cumulative IPC: 0.3838 (Simulation time: 00 hr 09 min 10 sec)
Heartbeat CPU 0 instructions: 60000007 cycles: 118181551 heartbeat IPC: 0.4042 cumulative IPC: 0.3887 (Simulation time: 00 hr 11 min 16 sec)
Simulation finished CPU 0 instructions: 50000000 cycles: 126821763 cumulative IPC: 0.3943 (Simulation time: 00 hr 13 min 20 sec)
Simulation complete CPU 0 instructions: 50000000 cycles: 126821763 cumulative IPC: 0.3943 (Simulation time: 00 hr 13 min 20 sec)

ChampSim completed all CPUs

=== Simulation ===
CPU 0 runs traces/620.omnetpp_s-874B.champsimtrace.xz

Region of Interest Statistics

CPU 0 cumulative IPC: 0.3943 instructions: 50000000 cycles: 126821763
CPU 0 Branch Prediction Accuracy: 96.16% MPKI: 7.99 Average ROB Occupancy at Mispredict: 58.78
Branch type MPKI
BRANCH_DIRECT_JUMP: 0.9384
BRANCH_INDIRECT: 0.1208
BRANCH_CONDITIONAL: 5.805
BRANCH_DIRECT_CALL: 0.00236
BRANCH_INDIRECT_CALL: 0.7298
BRANCH_RETURN: 0.3936

cpu0->cpu0_STLB TOTAL        ACCESS:     827939 HIT:     690843 MISS:     137096 MSHR_MERGE:          0
cpu0->cpu0_STLB LOAD         ACCESS:     827939 HIT:     690843 MISS:     137096 MSHR_MERGE:          0
cpu0->cpu0_STLB RFO          ACCESS:          0 HIT:          0 MISS:          0 MSHR_MERGE:          0
cpu0->cpu0_STLB PREFETCH     ACCESS:          0 HIT:          0 MISS:          0 MSHR_MERGE:          0
cpu0->cpu0_STLB WRITE        ACCESS:          0 HIT:          0 MISS:          0 MSHR_MERGE:          0
cpu0->cpu0_STLB TRANSLATION  ACCESS:          0 HIT:          0 MISS:          0 MSHR_MERGE:          0
cpu0->cpu0_STLB PREFETCH REQUESTED:          0 ISSUED:          0 USEFUL:          0 USELESS:          0
cpu0->cpu0_STLB AVERAGE MISS LATENCY: 298.6 cycles
cpu0->cpu0_L2C TOTAL        ACCESS:    3129789 HIT:    1362373 MISS:    1767416 MSHR_MERGE:     125241
cpu0->cpu0_L2C LOAD         ACCESS:     933750 HIT:     359303 MISS:     574447 MSHR_MERGE:      20843
cpu0->cpu0_L2C RFO          ACCESS:     139226 HIT:      58059 MISS:      81167 MSHR_MERGE:       2917
cpu0->cpu0_L2C PREFETCH     ACCESS:    1254759 HIT:     423017 MISS:     831742 MSHR_MERGE:     101481
cpu0->cpu0_L2C WRITE        ACCESS:     508633 HIT:     504418 MISS:       4215 MSHR_MERGE:          0
cpu0->cpu0_L2C TRANSLATION  ACCESS:     293421 HIT:      17576 MISS:     275845 MSHR_MERGE:          0
cpu0->cpu0_L2C PREFETCH REQUESTED:    1254767 ISSUED:    1254759 USEFUL:     174353 USELESS:     556207
cpu0->cpu0_L2C AVERAGE MISS LATENCY: 118.5 cycles
cpu0->cpu0_L1I TOTAL        ACCESS:    7880679 HIT:    7855259 MISS:      25420 MSHR_MERGE:       6965
cpu0->cpu0_L1I LOAD         ACCESS:    7880679 HIT:    7855259 MISS:      25420 MSHR_MERGE:       6965
cpu0->cpu0_L1I RFO          ACCESS:          0 HIT:          0 MISS:          0 MSHR_MERGE:          0
cpu0->cpu0_L1I PREFETCH     ACCESS:          0 HIT:          0 MISS:          0 MSHR_MERGE:          0
cpu0->cpu0_L1I WRITE        ACCESS:          0 HIT:          0 MISS:          0 MSHR_MERGE:          0
cpu0->cpu0_L1I TRANSLATION  ACCESS:          0 HIT:          0 MISS:          0 MSHR_MERGE:          0
cpu0->cpu0_L1I PREFETCH REQUESTED:          0 ISSUED:          0 USEFUL:          0 USELESS:          0
cpu0->cpu0_L1I AVERAGE MISS LATENCY: 24.06 cycles
cpu0->cpu0_L1D TOTAL        ACCESS:   18762658 HIT:   17021141 MISS:    1741517 MSHR_MERGE:     393564
cpu0->cpu0_L1D LOAD         ACCESS:    9422897 HIT:    8318070 MISS:    1104827 MSHR_MERGE:     189530
cpu0->cpu0_L1D RFO          ACCESS:          0 HIT:          0 MISS:          0 MSHR_MERGE:          0
cpu0->cpu0_L1D PREFETCH     ACCESS:          0 HIT:          0 MISS:          0 MSHR_MERGE:          0
cpu0->cpu0_L1D WRITE        ACCESS:    9038493 HIT:    8695550 MISS:     342943 MSHR_MERGE:     203708
cpu0->cpu0_L1D TRANSLATION  ACCESS:     301268 HIT:       7521 MISS:     293747 MSHR_MERGE:        326
cpu0->cpu0_L1D PREFETCH REQUESTED:          0 ISSUED:          0 USEFUL:          0 USELESS:          0
cpu0->cpu0_L1D AVERAGE MISS LATENCY: 90.75 cycles
cpu0->cpu0_ITLB TOTAL        ACCESS:    7218522 HIT:    7218318 MISS:        204 MSHR_MERGE:        100
cpu0->cpu0_ITLB LOAD         ACCESS:    7218522 HIT:    7218318 MISS:        204 MSHR_MERGE:        100
cpu0->cpu0_ITLB RFO          ACCESS:          0 HIT:          0 MISS:          0 MSHR_MERGE:          0
cpu0->cpu0_ITLB PREFETCH     ACCESS:          0 HIT:          0 MISS:          0 MSHR_MERGE:          0
cpu0->cpu0_ITLB WRITE        ACCESS:          0 HIT:          0 MISS:          0 MSHR_MERGE:          0
cpu0->cpu0_ITLB TRANSLATION  ACCESS:          0 HIT:          0 MISS:          0 MSHR_MERGE:          0
cpu0->cpu0_ITLB PREFETCH REQUESTED:          0 ISSUED:          0 USEFUL:          0 USELESS:          0
cpu0->cpu0_ITLB AVERAGE MISS LATENCY: 180.5 cycles
cpu0->cpu0_DTLB TOTAL        ACCESS:   17193553 HIT:   16247617 MISS:     945936 MSHR_MERGE:     118101
cpu0->cpu0_DTLB LOAD         ACCESS:   17193553 HIT:   16247617 MISS:     945936 MSHR_MERGE:     118101
cpu0->cpu0_DTLB RFO          ACCESS:          0 HIT:          0 MISS:          0 MSHR_MERGE:          0
cpu0->cpu0_DTLB PREFETCH     ACCESS:          0 HIT:          0 MISS:          0 MSHR_MERGE:          0
cpu0->cpu0_DTLB WRITE        ACCESS:          0 HIT:          0 MISS:          0 MSHR_MERGE:          0
cpu0->cpu0_DTLB TRANSLATION  ACCESS:          0 HIT:          0 MISS:          0 MSHR_MERGE:          0
cpu0->cpu0_DTLB PREFETCH REQUESTED:          0 ISSUED:          0 USEFUL:          0 USELESS:          0
cpu0->cpu0_DTLB AVERAGE MISS LATENCY: 53.6 cycles
cpu0->LLC TOTAL        ACCESS:    2038901 HIT:     448610 MISS:    1590291 MSHR_MERGE:          0
cpu0->LLC LOAD         ACCESS:     553604 HIT:     125647 MISS:     427957 MSHR_MERGE:          0
cpu0->LLC RFO          ACCESS:      78250 HIT:      13904 MISS:      64346 MSHR_MERGE:          0
cpu0->LLC PREFETCH     ACCESS:     730261 HIT:     115649 MISS:     614612 MSHR_MERGE:          0
cpu0->LLC WRITE        ACCESS:     400941 HIT:     140968 MISS:     259973 MSHR_MERGE:          0
cpu0->LLC TRANSLATION  ACCESS:     275845 HIT:      52442 MISS:     223403 MSHR_MERGE:          0
cpu0->LLC PREFETCH REQUESTED:          0 ISSUED:          0 USEFUL:          0 USELESS:          0
cpu0->LLC AVERAGE MISS LATENCY: 97.85 cycles

DRAM Statistics

Channel 0 RQ ROW_BUFFER_HIT:        109
  ROW_BUFFER_MISS:     332381
  AVG DBUS CONGESTED CYCLE: 22.99
Channel 0 WQ ROW_BUFFER_HIT:      10933
  ROW_BUFFER_MISS:      62130
  FULL:          0
Channel 0 REFRESHES ISSUED:      10569

Channel 1 RQ ROW_BUFFER_HIT:         90
  ROW_BUFFER_MISS:     332135
  AVG DBUS CONGESTED CYCLE: 23
Channel 1 WQ ROW_BUFFER_HIT:      11051
  ROW_BUFFER_MISS:      61759
  FULL:          0
Channel 1 REFRESHES ISSUED:      10569

Channel 2 RQ ROW_BUFFER_HIT:        103
  ROW_BUFFER_MISS:     331899
  AVG DBUS CONGESTED CYCLE: 23.02
Channel 2 WQ ROW_BUFFER_HIT:      10927
  ROW_BUFFER_MISS:      62024
  FULL:          0
Channel 2 REFRESHES ISSUED:      10569

Channel 3 RQ ROW_BUFFER_HIT:        118
  ROW_BUFFER_MISS:     333466
  AVG DBUS CONGESTED CYCLE: 22.99
Channel 3 WQ ROW_BUFFER_HIT:      11029
  ROW_BUFFER_MISS:      62221
  FULL:          0
Channel 3 REFRESHES ISSUED:      10569
