[VMEM] WARNING: physical memory size is smaller than virtual memory size.
WARNING: option --warmup_instructions is deprecated. Use --warmup-instructions instead.
WARNING: option --simulation_instructions is deprecated. Use --simulation-instructions instead.

*** ChampSim Multicore Out-of-Order Simulator ***
Warmup Instructions: 20000000
Simulation Instructions: 50000000
Number of CPUs: 1
Page size: 8192

Off-chip DRAM Size: 16 GiB Channels: 1 Width: 64-bit Data Rate: 3205 MT/s
Heartbeat CPU 0 instructions: 10000000 cycles: 8237165 heartbeat IPC: 1.214 cumulative IPC: 1.214 (Simulation time: 00 hr 02 min 49 sec)
Heartbeat CPU 0 instructions: 20000000 cycles: 15263299 heartbeat IPC: 1.423 cumulative IPC: 1.31 (Simulation time: 00 hr 05 min 25 sec)
Warmup finished CPU 0 instructions: 20000000 cycles: 15263299 cumulative IPC: 1.31 (Simulation time: 00 hr 05 min 25 sec)
Warmup complete CPU 0 instructions: 20000000 cycles: 15263299 cumulative IPC: 1.31 (Simulation time: 00 hr 05 min 25 sec)
Heartbeat CPU 0 instructions: 30000002 cycles: 51920922 heartbeat IPC: 0.2728 cumulative IPC: 0.2728 (Simulation time: 00 hr 13 min 11 sec)
Heartbeat CPU 0 instructions: 40000004 cycles: 89190651 heartbeat IPC: 0.2683 cumulative IPC: 0.2705 (Simulation time: 00 hr 21 min 10 sec)
Heartbeat CPU 0 instructions: 50000004 cycles: 126367828 heartbeat IPC: 0.269 cumulative IPC: 0.27 (Simulation time: 00 hr 29 min 12 sec)
Heartbeat CPU 0 instructions: 60000007 cycles: 161308076 heartbeat IPC: 0.2862 cumulative IPC: 0.2739 (Simulation time: 00 hr 36 min 49 sec)
Simulation finished CPU 0 instructions: 50000001 cycles: 179936848 cumulative IPC: 0.2779 (Simulation time: 00 hr 44 min 10 sec)
Simulation complete CPU 0 instructions: 50000001 cycles: 179936848 cumulative IPC: 0.2779 (Simulation time: 00 hr 44 min 10 sec)

ChampSim completed all CPUs

=== Simulation ===
CPU 0 runs traces/A2/620.omnetpp_s-874B.champsimtrace.xz

Region of Interest Statistics

CPU 0 cumulative IPC: 0.2779 instructions: 50000001 cycles: 179936848
CPU 0 Branch Prediction Accuracy: 96.16% MPKI: 7.99 Average ROB Occupancy at Mispredict: 59.31
Branch type MPKI
BRANCH_DIRECT_JUMP: 0.9384
BRANCH_INDIRECT: 0.1208
BRANCH_CONDITIONAL: 5.805
BRANCH_DIRECT_CALL: 0.00236
BRANCH_INDIRECT_CALL: 0.7298
BRANCH_RETURN: 0.3936

cpu0->cpu0_STLB TOTAL        ACCESS:     828727 HIT:     691630 MISS:     137097 MSHR_MERGE:          0
cpu0->cpu0_STLB LOAD         ACCESS:     828727 HIT:     691630 MISS:     137097 MSHR_MERGE:          0
cpu0->cpu0_STLB RFO          ACCESS:          0 HIT:          0 MISS:          0 MSHR_MERGE:          0
cpu0->cpu0_STLB PREFETCH     ACCESS:          0 HIT:          0 MISS:          0 MSHR_MERGE:          0
cpu0->cpu0_STLB WRITE        ACCESS:          0 HIT:          0 MISS:          0 MSHR_MERGE:          0
cpu0->cpu0_STLB TRANSLATION  ACCESS:          0 HIT:          0 MISS:          0 MSHR_MERGE:          0
cpu0->cpu0_STLB PREFETCH REQUESTED:          0 ISSUED:          0 USEFUL:          0 USELESS:          0
cpu0->cpu0_STLB AVERAGE MISS LATENCY: 439.4 cycles
cpu0->cpu0_L2C TOTAL        ACCESS:    1898305 HIT:     857550 MISS:    1040755 MSHR_MERGE:          4
cpu0->cpu0_L2C LOAD         ACCESS:     933841 HIT:     285448 MISS:     648393 MSHR_MERGE:          1
cpu0->cpu0_L2C RFO          ACCESS:     139166 HIT:      32529 MISS:     106637 MSHR_MERGE:          0
cpu0->cpu0_L2C PREFETCH     ACCESS:      25199 HIT:      12237 MISS:      12962 MSHR_MERGE:          3
cpu0->cpu0_L2C WRITE        ACCESS:     506815 HIT:     504625 MISS:       2190 MSHR_MERGE:          0
cpu0->cpu0_L2C TRANSLATION  ACCESS:     293284 HIT:      22711 MISS:     270573 MSHR_MERGE:          0
cpu0->cpu0_L2C PREFETCH REQUESTED:      25199 ISSUED:      25199 USEFUL:       7433 USELESS:       5448
cpu0->cpu0_L2C AVERAGE MISS LATENCY: 195.6 cycles
cpu0->cpu0_L1I TOTAL        ACCESS:    7917131 HIT:    7891979 MISS:      25152 MSHR_MERGE:       6659
cpu0->cpu0_L1I LOAD         ACCESS:    7917131 HIT:    7891979 MISS:      25152 MSHR_MERGE:       6659
cpu0->cpu0_L1I RFO          ACCESS:          0 HIT:          0 MISS:          0 MSHR_MERGE:          0
cpu0->cpu0_L1I PREFETCH     ACCESS:          0 HIT:          0 MISS:          0 MSHR_MERGE:          0
cpu0->cpu0_L1I WRITE        ACCESS:          0 HIT:          0 MISS:          0 MSHR_MERGE:          0
cpu0->cpu0_L1I TRANSLATION  ACCESS:          0 HIT:          0 MISS:          0 MSHR_MERGE:          0
cpu0->cpu0_L1I PREFETCH REQUESTED:          0 ISSUED:          0 USEFUL:          0 USELESS:          0
cpu0->cpu0_L1I AVERAGE MISS LATENCY: 32.48 cycles
cpu0->cpu0_L1D TOTAL        ACCESS:   18756616 HIT:   16945865 MISS:    1810751 MSHR_MERGE:     462944
cpu0->cpu0_L1D LOAD         ACCESS:    9417736 HIT:    8290109 MISS:    1127627 MSHR_MERGE:     212277
cpu0->cpu0_L1D RFO          ACCESS:          0 HIT:          0 MISS:          0 MSHR_MERGE:          0
cpu0->cpu0_L1D PREFETCH     ACCESS:          0 HIT:          0 MISS:          0 MSHR_MERGE:          0
cpu0->cpu0_L1D WRITE        ACCESS:    9037611 HIT:    8648066 MISS:     389545 MSHR_MERGE:     250372
cpu0->cpu0_L1D TRANSLATION  ACCESS:     301269 HIT:       7690 MISS:     293579 MSHR_MERGE:        295
cpu0->cpu0_L1D PREFETCH REQUESTED:          0 ISSUED:          0 USEFUL:          0 USELESS:          0
cpu0->cpu0_L1D AVERAGE MISS LATENCY: 157.6 cycles
cpu0->cpu0_ITLB TOTAL        ACCESS:    7259006 HIT:    7258802 MISS:        204 MSHR_MERGE:        100
cpu0->cpu0_ITLB LOAD         ACCESS:    7259006 HIT:    7258802 MISS:        204 MSHR_MERGE:        100
cpu0->cpu0_ITLB RFO          ACCESS:          0 HIT:          0 MISS:          0 MSHR_MERGE:          0
cpu0->cpu0_ITLB PREFETCH     ACCESS:          0 HIT:          0 MISS:          0 MSHR_MERGE:          0
cpu0->cpu0_ITLB WRITE        ACCESS:          0 HIT:          0 MISS:          0 MSHR_MERGE:          0
cpu0->cpu0_ITLB TRANSLATION  ACCESS:          0 HIT:          0 MISS:          0 MSHR_MERGE:          0
cpu0->cpu0_ITLB PREFETCH REQUESTED:          0 ISSUED:          0 USEFUL:          0 USELESS:          0
cpu0->cpu0_ITLB AVERAGE MISS LATENCY: 245.6 cycles
cpu0->cpu0_DTLB TOTAL        ACCESS:   17195141 HIT:   16244693 MISS:     950448 MSHR_MERGE:     121824
cpu0->cpu0_DTLB LOAD         ACCESS:   17195141 HIT:   16244693 MISS:     950448 MSHR_MERGE:     121824
cpu0->cpu0_DTLB RFO          ACCESS:          0 HIT:          0 MISS:          0 MSHR_MERGE:          0
cpu0->cpu0_DTLB PREFETCH     ACCESS:          0 HIT:          0 MISS:          0 MSHR_MERGE:          0
cpu0->cpu0_DTLB WRITE        ACCESS:          0 HIT:          0 MISS:          0 MSHR_MERGE:          0
cpu0->cpu0_DTLB TRANSLATION  ACCESS:          0 HIT:          0 MISS:          0 MSHR_MERGE:          0
cpu0->cpu0_DTLB PREFETCH REQUESTED:          0 ISSUED:          0 USEFUL:          0 USELESS:          0
cpu0->cpu0_DTLB AVERAGE MISS LATENCY: 76.83 cycles
cpu0->LLC TOTAL        ACCESS:    1418406 HIT:     338264 MISS:    1080142 MSHR_MERGE:          0
cpu0->LLC LOAD         ACCESS:     648392 HIT:     130044 MISS:     518348 MSHR_MERGE:          0
cpu0->LLC RFO          ACCESS:     106637 HIT:      23685 MISS:      82952 MSHR_MERGE:          0
cpu0->LLC PREFETCH     ACCESS:      12959 HIT:        973 MISS:      11986 MSHR_MERGE:          0
cpu0->LLC WRITE        ACCESS:     379845 HIT:     126348 MISS:     253497 MSHR_MERGE:          0
cpu0->LLC TRANSLATION  ACCESS:     270573 HIT:      57214 MISS:     213359 MSHR_MERGE:          0
cpu0->LLC PREFETCH REQUESTED:          0 ISSUED:          0 USEFUL:          0 USELESS:          0
cpu0->LLC AVERAGE MISS LATENCY: 174.2 cycles

DRAM Statistics

Channel 0 RQ ROW_BUFFER_HIT:      11785
  ROW_BUFFER_MISS:     814769
  AVG DBUS CONGESTED CYCLE: 34.04
Channel 0 WQ ROW_BUFFER_HIT:      82181
  ROW_BUFFER_MISS:     196489
  FULL:          0
Channel 0 REFRESHES ISSUED:      14995
