[VMEM] WARNING: physical memory size is smaller than virtual memory size.
WARNING: option --warmup_instructions is deprecated. Use --warmup-instructions instead.
WARNING: option --simulation_instructions is deprecated. Use --simulation-instructions instead.

*** ChampSim Multicore Out-of-Order Simulator ***
Warmup Instructions: 20000000
Simulation Instructions: 50000000
Number of CPUs: 1
Page size: 8192

Off-chip DRAM Size: 16 GiB Channels: 1 Width: 64-bit Data Rate: 3205 MT/s
Heartbeat CPU 0 instructions: 10000000 cycles: 6984443 heartbeat IPC: 1.432 cumulative IPC: 1.432 (Simulation time: 00 hr 02 min 30 sec)
Heartbeat CPU 0 instructions: 20000001 cycles: 11061717 heartbeat IPC: 2.453 cumulative IPC: 1.808 (Simulation time: 00 hr 04 min 24 sec)
Warmup finished CPU 0 instructions: 20000001 cycles: 11061717 cumulative IPC: 1.808 (Simulation time: 00 hr 04 min 24 sec)
Warmup complete CPU 0 instructions: 20000001 cycles: 11061717 cumulative IPC: 1.808 (Simulation time: 00 hr 04 min 24 sec)
Heartbeat CPU 0 instructions: 30000003 cycles: 81628379 heartbeat IPC: 0.1417 cumulative IPC: 0.1417 (Simulation time: 00 hr 18 min 40 sec)
Heartbeat CPU 0 instructions: 40000005 cycles: 154242157 heartbeat IPC: 0.1377 cumulative IPC: 0.1397 (Simulation time: 00 hr 33 min 39 sec)
Heartbeat CPU 0 instructions: 50000006 cycles: 226300808 heartbeat IPC: 0.1388 cumulative IPC: 0.1394 (Simulation time: 00 hr 48 min 25 sec)
Heartbeat CPU 0 instructions: 60000007 cycles: 298878250 heartbeat IPC: 0.1378 cumulative IPC: 0.139 (Simulation time: 01 hr 03 min 17 sec)
Simulation finished CPU 0 instructions: 50000002 cycles: 358413538 cumulative IPC: 0.1395 (Simulation time: 01 hr 17 min 50 sec)
Simulation complete CPU 0 instructions: 50000002 cycles: 358413538 cumulative IPC: 0.1395 (Simulation time: 01 hr 17 min 50 sec)

ChampSim completed all CPUs

=== Simulation ===
CPU 0 runs traces/A2/473.astar-359B.champsimtrace.xz

Region of Interest Statistics

CPU 0 cumulative IPC: 0.1395 instructions: 50000002 cycles: 358413538
CPU 0 Branch Prediction Accuracy: 93.2% MPKI: 13.43 Average ROB Occupancy at Mispredict: 44.43
Branch type MPKI
BRANCH_DIRECT_JUMP: 0
BRANCH_INDIRECT: 0
BRANCH_CONDITIONAL: 13.42
BRANCH_DIRECT_CALL: 0
BRANCH_INDIRECT_CALL: 0.00054
BRANCH_RETURN: 0

cpu0->cpu0_STLB TOTAL        ACCESS:    1275625 HIT:     889366 MISS:     386259 MSHR_MERGE:          0
cpu0->cpu0_STLB LOAD         ACCESS:    1275625 HIT:     889366 MISS:     386259 MSHR_MERGE:          0
cpu0->cpu0_STLB RFO          ACCESS:          0 HIT:          0 MISS:          0 MSHR_MERGE:          0
cpu0->cpu0_STLB PREFETCH     ACCESS:          0 HIT:          0 MISS:          0 MSHR_MERGE:          0
cpu0->cpu0_STLB WRITE        ACCESS:          0 HIT:          0 MISS:          0 MSHR_MERGE:          0
cpu0->cpu0_STLB TRANSLATION  ACCESS:          0 HIT:          0 MISS:          0 MSHR_MERGE:          0
cpu0->cpu0_STLB PREFETCH REQUESTED:          0 ISSUED:          0 USEFUL:          0 USELESS:          0
cpu0->cpu0_STLB AVERAGE MISS LATENCY: 810.1 cycles
cpu0->cpu0_L2C TOTAL        ACCESS:    4747971 HIT:    2085382 MISS:    2662589 MSHR_MERGE:       6003
cpu0->cpu0_L2C LOAD         ACCESS:    1775430 HIT:     737652 MISS:    1037778 MSHR_MERGE:        405
cpu0->cpu0_L2C RFO          ACCESS:     767632 HIT:      48554 MISS:     719078 MSHR_MERGE:          0
cpu0->cpu0_L2C PREFETCH     ACCESS:     385776 HIT:     122477 MISS:     263299 MSHR_MERGE:       5598
cpu0->cpu0_L2C WRITE        ACCESS:    1168861 HIT:    1168826 MISS:         35 MSHR_MERGE:          0
cpu0->cpu0_L2C TRANSLATION  ACCESS:     650272 HIT:       7873 MISS:     642399 MSHR_MERGE:          0
cpu0->cpu0_L2C PREFETCH REQUESTED:     385776 ISSUED:     385776 USEFUL:       6297 USELESS:       7196
cpu0->cpu0_L2C AVERAGE MISS LATENCY: 363.8 cycles
cpu0->cpu0_L1I TOTAL        ACCESS:     854211 HIT:     854204 MISS:          7 MSHR_MERGE:          0
cpu0->cpu0_L1I LOAD         ACCESS:     854211 HIT:     854204 MISS:          7 MSHR_MERGE:          0
cpu0->cpu0_L1I RFO          ACCESS:          0 HIT:          0 MISS:          0 MSHR_MERGE:          0
cpu0->cpu0_L1I PREFETCH     ACCESS:          0 HIT:          0 MISS:          0 MSHR_MERGE:          0
cpu0->cpu0_L1I WRITE        ACCESS:          0 HIT:          0 MISS:          0 MSHR_MERGE:          0
cpu0->cpu0_L1I TRANSLATION  ACCESS:          0 HIT:          0 MISS:          0 MSHR_MERGE:          0
cpu0->cpu0_L1I PREFETCH REQUESTED:          0 ISSUED:          0 USEFUL:          0 USELESS:          0
cpu0->cpu0_L1I AVERAGE MISS LATENCY: 309 cycles
cpu0->cpu0_L1D TOTAL        ACCESS:   19835685 HIT:   15945742 MISS:    3889943 MSHR_MERGE:     696613
cpu0->cpu0_L1D LOAD         ACCESS:   12744067 HIT:   10365178 MISS:    2378889 MSHR_MERGE:     603464
cpu0->cpu0_L1D RFO          ACCESS:          0 HIT:          0 MISS:          0 MSHR_MERGE:          0
cpu0->cpu0_L1D PREFETCH     ACCESS:          0 HIT:          0 MISS:          0 MSHR_MERGE:          0
cpu0->cpu0_L1D WRITE        ACCESS:    6314464 HIT:    5546749 MISS:     767715 MSHR_MERGE:         82
cpu0->cpu0_L1D TRANSLATION  ACCESS:     777154 HIT:      33815 MISS:     743339 MSHR_MERGE:      93067
cpu0->cpu0_L1D PREFETCH REQUESTED:          0 ISSUED:          0 USEFUL:          0 USELESS:          0
cpu0->cpu0_L1D AVERAGE MISS LATENCY: 282.2 cycles
cpu0->cpu0_ITLB TOTAL        ACCESS:     851662 HIT:     851662 MISS:          0 MSHR_MERGE:          0
cpu0->cpu0_ITLB LOAD         ACCESS:     851662 HIT:     851662 MISS:          0 MSHR_MERGE:          0
cpu0->cpu0_ITLB RFO          ACCESS:          0 HIT:          0 MISS:          0 MSHR_MERGE:          0
cpu0->cpu0_ITLB PREFETCH     ACCESS:          0 HIT:          0 MISS:          0 MSHR_MERGE:          0
cpu0->cpu0_ITLB WRITE        ACCESS:          0 HIT:          0 MISS:          0 MSHR_MERGE:          0
cpu0->cpu0_ITLB TRANSLATION  ACCESS:          0 HIT:          0 MISS:          0 MSHR_MERGE:          0
cpu0->cpu0_ITLB PREFETCH REQUESTED:          0 ISSUED:          0 USEFUL:          0 USELESS:          0
cpu0->cpu0_ITLB AVERAGE MISS LATENCY: - cycles
cpu0->cpu0_DTLB TOTAL        ACCESS:   18136974 HIT:   16254359 MISS:    1882615 MSHR_MERGE:     606990
cpu0->cpu0_DTLB LOAD         ACCESS:   18136974 HIT:   16254359 MISS:    1882615 MSHR_MERGE:     606990
cpu0->cpu0_DTLB RFO          ACCESS:          0 HIT:          0 MISS:          0 MSHR_MERGE:          0
cpu0->cpu0_DTLB PREFETCH     ACCESS:          0 HIT:          0 MISS:          0 MSHR_MERGE:          0
cpu0->cpu0_DTLB WRITE        ACCESS:          0 HIT:          0 MISS:          0 MSHR_MERGE:          0
cpu0->cpu0_DTLB TRANSLATION  ACCESS:          0 HIT:          0 MISS:          0 MSHR_MERGE:          0
cpu0->cpu0_DTLB PREFETCH REQUESTED:          0 ISSUED:          0 USEFUL:          0 USELESS:          0
cpu0->cpu0_DTLB AVERAGE MISS LATENCY: 249.6 cycles
cpu0->LLC TOTAL        ACCESS:    3775630 HIT:     954380 MISS:    2821250 MSHR_MERGE:      19908
cpu0->LLC LOAD         ACCESS:    1037373 HIT:     248509 MISS:     788864 MSHR_MERGE:       2089
cpu0->LLC RFO          ACCESS:     719077 HIT:     125083 MISS:     593994 MSHR_MERGE:          0
cpu0->LLC PREFETCH     ACCESS:     257701 HIT:     207529 MISS:      50172 MSHR_MERGE:      17819
cpu0->LLC WRITE        ACCESS:    1119080 HIT:     265986 MISS:     853094 MSHR_MERGE:          0
cpu0->LLC TRANSLATION  ACCESS:     642399 HIT:     107273 MISS:     535126 MSHR_MERGE:          0
cpu0->LLC PREFETCH REQUESTED:          0 ISSUED:          0 USEFUL:          0 USELESS:          0
cpu0->LLC AVERAGE MISS LATENCY: 303.2 cycles

DRAM Statistics

Channel 0 RQ ROW_BUFFER_HIT:      81276
  ROW_BUFFER_MISS:    1866417
  AVG DBUS CONGESTED CYCLE: 30.24
Channel 0 WQ ROW_BUFFER_HIT:     153312
  ROW_BUFFER_MISS:     751550
  FULL:        465
Channel 0 REFRESHES ISSUED:      29868
