[VMEM] WARNING: physical memory size is smaller than virtual memory size.
WARNING: option --warmup_instructions is deprecated. Use --warmup-instructions instead.
WARNING: option --simulation_instructions is deprecated. Use --simulation-instructions instead.

*** ChampSim Multicore Out-of-Order Simulator ***
Warmup Instructions: 20000000
Simulation Instructions: 50000000
Number of CPUs: 1
Page size: 8192

Off-chip DRAM Size: 16 GiB Channels: 1 Width: 64-bit Data Rate: 3205 MT/s
Heartbeat CPU 0 instructions: 10000001 cycles: 2972607 heartbeat IPC: 3.364 cumulative IPC: 3.364 (Simulation time: 00 hr 01 min 18 sec)
Warmup finished CPU 0 instructions: 20000000 cycles: 5933990 cumulative IPC: 3.37 (Simulation time: 00 hr 02 min 32 sec)
Warmup complete CPU 0 instructions: 20000000 cycles: 5933990 cumulative IPC: 3.37 (Simulation time: 00 hr 02 min 32 sec)
Heartbeat CPU 0 instructions: 20000004 cycles: 5933991 heartbeat IPC: 3.377 cumulative IPC: 4 (Simulation time: 00 hr 02 min 32 sec)
Heartbeat CPU 0 instructions: 30000006 cycles: 24917061 heartbeat IPC: 0.5268 cumulative IPC: 0.5268 (Simulation time: 00 hr 07 min 59 sec)
Heartbeat CPU 0 instructions: 40000009 cycles: 43780036 heartbeat IPC: 0.5301 cumulative IPC: 0.5285 (Simulation time: 00 hr 13 min 18 sec)
Heartbeat CPU 0 instructions: 50000009 cycles: 62380650 heartbeat IPC: 0.5376 cumulative IPC: 0.5315 (Simulation time: 00 hr 18 min 35 sec)
Heartbeat CPU 0 instructions: 60000010 cycles: 81037815 heartbeat IPC: 0.536 cumulative IPC: 0.5326 (Simulation time: 00 hr 23 min 54 sec)
Simulation finished CPU 0 instructions: 50000000 cycles: 93751997 cumulative IPC: 0.5333 (Simulation time: 00 hr 29 min 12 sec)
Simulation complete CPU 0 instructions: 50000000 cycles: 93751997 cumulative IPC: 0.5333 (Simulation time: 00 hr 29 min 12 sec)

ChampSim completed all CPUs

=== Simulation ===
CPU 0 runs traces/A2/470.lbm-1274B.champsimtrace.xz

Region of Interest Statistics

CPU 0 cumulative IPC: 0.5333 instructions: 50000000 cycles: 93751997
CPU 0 Branch Prediction Accuracy: 99.79% MPKI: 0.02864 Average ROB Occupancy at Mispredict: 189.9
Branch type MPKI
BRANCH_DIRECT_JUMP: 0
BRANCH_INDIRECT: 0
BRANCH_CONDITIONAL: 0.02864
BRANCH_DIRECT_CALL: 0
BRANCH_INDIRECT_CALL: 0
BRANCH_RETURN: 0

cpu0->cpu0_STLB TOTAL        ACCESS:      11115 HIT:       5557 MISS:       5558 MSHR_MERGE:          0
cpu0->cpu0_STLB LOAD         ACCESS:      11115 HIT:       5557 MISS:       5558 MSHR_MERGE:          0
cpu0->cpu0_STLB RFO          ACCESS:          0 HIT:          0 MISS:          0 MSHR_MERGE:          0
cpu0->cpu0_STLB PREFETCH     ACCESS:          0 HIT:          0 MISS:          0 MSHR_MERGE:          0
cpu0->cpu0_STLB WRITE        ACCESS:          0 HIT:          0 MISS:          0 MSHR_MERGE:          0
cpu0->cpu0_STLB TRANSLATION  ACCESS:          0 HIT:          0 MISS:          0 MSHR_MERGE:          0
cpu0->cpu0_STLB PREFETCH REQUESTED:          0 ISSUED:          0 USEFUL:          0 USELESS:          0
cpu0->cpu0_STLB AVERAGE MISS LATENCY: 1229 cycles
cpu0->cpu0_L2C TOTAL        ACCESS:    4643420 HIT:    3027238 MISS:    1616182 MSHR_MERGE:        363
cpu0->cpu0_L2C LOAD         ACCESS:     355730 HIT:      45985 MISS:     309745 MSHR_MERGE:         54
cpu0->cpu0_L2C RFO          ACCESS:    2002711 HIT:     925864 MISS:    1076847 MSHR_MERGE:          0
cpu0->cpu0_L2C PREFETCH     ACCESS:     271087 HIT:      50196 MISS:     220891 MSHR_MERGE:        309
cpu0->cpu0_L2C WRITE        ACCESS:    2002764 HIT:    2002749 MISS:         15 MSHR_MERGE:          0
cpu0->cpu0_L2C TRANSLATION  ACCESS:      11128 HIT:       2444 MISS:       8684 MSHR_MERGE:          0
cpu0->cpu0_L2C PREFETCH REQUESTED:     271087 ISSUED:     271087 USEFUL:      46039 USELESS:          0
cpu0->cpu0_L2C AVERAGE MISS LATENCY: 485.3 cycles
cpu0->cpu0_L1I TOTAL        ACCESS:    8404205 HIT:    8404205 MISS:          0 MSHR_MERGE:          0
cpu0->cpu0_L1I LOAD         ACCESS:    8404205 HIT:    8404205 MISS:          0 MSHR_MERGE:          0
cpu0->cpu0_L1I RFO          ACCESS:          0 HIT:          0 MISS:          0 MSHR_MERGE:          0
cpu0->cpu0_L1I PREFETCH     ACCESS:          0 HIT:          0 MISS:          0 MSHR_MERGE:          0
cpu0->cpu0_L1I WRITE        ACCESS:          0 HIT:          0 MISS:          0 MSHR_MERGE:          0
cpu0->cpu0_L1I TRANSLATION  ACCESS:          0 HIT:          0 MISS:          0 MSHR_MERGE:          0
cpu0->cpu0_L1I PREFETCH REQUESTED:          0 ISSUED:          0 USEFUL:          0 USELESS:          0
cpu0->cpu0_L1I AVERAGE MISS LATENCY: - cycles
cpu0->cpu0_L1D TOTAL        ACCESS:    7345007 HIT:    4784912 MISS:    2560095 MSHR_MERGE:     190473
cpu0->cpu0_L1D LOAD         ACCESS:    2310360 HIT:    1789209 MISS:     521151 MSHR_MERGE:     165421
cpu0->cpu0_L1D RFO          ACCESS:          0 HIT:          0 MISS:          0 MSHR_MERGE:          0
cpu0->cpu0_L1D PREFETCH     ACCESS:          0 HIT:          0 MISS:          0 MSHR_MERGE:          0
cpu0->cpu0_L1D WRITE        ACCESS:    5023519 HIT:    2995703 MISS:    2027816 MSHR_MERGE:      25052
cpu0->cpu0_L1D TRANSLATION  ACCESS:      11128 HIT:          0 MISS:      11128 MSHR_MERGE:          0
cpu0->cpu0_L1D PREFETCH REQUESTED:          0 ISSUED:          0 USEFUL:          0 USELESS:          0
cpu0->cpu0_L1D AVERAGE MISS LATENCY: 294.8 cycles
cpu0->cpu0_ITLB TOTAL        ACCESS:    6839909 HIT:    6839909 MISS:          0 MSHR_MERGE:          0
cpu0->cpu0_ITLB LOAD         ACCESS:    6839909 HIT:    6839909 MISS:          0 MSHR_MERGE:          0
cpu0->cpu0_ITLB RFO          ACCESS:          0 HIT:          0 MISS:          0 MSHR_MERGE:          0
cpu0->cpu0_ITLB PREFETCH     ACCESS:          0 HIT:          0 MISS:          0 MSHR_MERGE:          0
cpu0->cpu0_ITLB WRITE        ACCESS:          0 HIT:          0 MISS:          0 MSHR_MERGE:          0
cpu0->cpu0_ITLB TRANSLATION  ACCESS:          0 HIT:          0 MISS:          0 MSHR_MERGE:          0
cpu0->cpu0_ITLB PREFETCH REQUESTED:          0 ISSUED:          0 USEFUL:          0 USELESS:          0
cpu0->cpu0_ITLB AVERAGE MISS LATENCY: - cycles
cpu0->cpu0_DTLB TOTAL        ACCESS:    6812678 HIT:    6790736 MISS:      21942 MSHR_MERGE:      10827
cpu0->cpu0_DTLB LOAD         ACCESS:    6812678 HIT:    6790736 MISS:      21942 MSHR_MERGE:      10827
cpu0->cpu0_DTLB RFO          ACCESS:          0 HIT:          0 MISS:          0 MSHR_MERGE:          0
cpu0->cpu0_DTLB PREFETCH     ACCESS:          0 HIT:          0 MISS:          0 MSHR_MERGE:          0
cpu0->cpu0_DTLB WRITE        ACCESS:          0 HIT:          0 MISS:          0 MSHR_MERGE:          0
cpu0->cpu0_DTLB TRANSLATION  ACCESS:          0 HIT:          0 MISS:          0 MSHR_MERGE:          0
cpu0->cpu0_DTLB PREFETCH REQUESTED:          0 ISSUED:          0 USEFUL:          0 USELESS:          0
cpu0->cpu0_DTLB AVERAGE MISS LATENCY: 618.9 cycles
cpu0->LLC TOTAL        ACCESS:    2692966 HIT:     239528 MISS:    2453438 MSHR_MERGE:       1231
cpu0->LLC LOAD         ACCESS:     309691 HIT:      94252 MISS:     215439 MSHR_MERGE:        283
cpu0->LLC RFO          ACCESS:    1076847 HIT:      19139 MISS:    1057708 MSHR_MERGE:          0
cpu0->LLC PREFETCH     ACCESS:     220582 HIT:      79053 MISS:     141529 MSHR_MERGE:        948
cpu0->LLC WRITE        ACCESS:    1077162 HIT:      47084 MISS:    1030078 MSHR_MERGE:          0
cpu0->LLC TRANSLATION  ACCESS:       8684 HIT:          0 MISS:       8684 MSHR_MERGE:          0
cpu0->LLC PREFETCH REQUESTED:          0 ISSUED:          0 USEFUL:          0 USELESS:          0
cpu0->LLC AVERAGE MISS LATENCY: 286.7 cycles

DRAM Statistics

Channel 0 RQ ROW_BUFFER_HIT:      30103
  ROW_BUFFER_MISS:    1391950
  AVG DBUS CONGESTED CYCLE: 22.49
Channel 0 WQ ROW_BUFFER_HIT:     193107
  ROW_BUFFER_MISS:     883780
  FULL:         68
Channel 0 REFRESHES ISSUED:       7813
