[VMEM] WARNING: physical memory size is smaller than virtual memory size.
WARNING: option --warmup_instructions is deprecated. Use --warmup-instructions instead.
WARNING: option --simulation_instructions is deprecated. Use --simulation-instructions instead.

*** ChampSim Multicore Out-of-Order Simulator ***
Warmup Instructions: 20000000
Simulation Instructions: 50000000
Number of CPUs: 1
Page size: 8192

Off-chip DRAM Size: 16 GiB Channels: 1 Width: 64-bit Data Rate: 3205 MT/s
Heartbeat CPU 0 instructions: 10000003 cycles: 6070963 heartbeat IPC: 1.647 cumulative IPC: 1.647 (Simulation time: 00 hr 00 min 56 sec)
Heartbeat CPU 0 instructions: 20000003 cycles: 11998641 heartbeat IPC: 1.687 cumulative IPC: 1.667 (Simulation time: 00 hr 01 min 57 sec)
Warmup finished CPU 0 instructions: 20000003 cycles: 11998641 cumulative IPC: 1.667 (Simulation time: 00 hr 01 min 57 sec)
Warmup complete CPU 0 instructions: 20000003 cycles: 11998641 cumulative IPC: 1.667 (Simulation time: 00 hr 01 min 57 sec)
Heartbeat CPU 0 instructions: 30000003 cycles: 42203428 heartbeat IPC: 0.3311 cumulative IPC: 0.3311 (Simulation time: 00 hr 05 min 00 sec)
Heartbeat CPU 0 instructions: 40000005 cycles: 55693977 heartbeat IPC: 0.7413 cumulative IPC: 0.4577 (Simulation time: 00 hr 06 min 32 sec)
Heartbeat CPU 0 instructions: 50000007 cycles: 77832801 heartbeat IPC: 0.4517 cumulative IPC: 0.4557 (Simulation time: 00 hr 08 min 50 sec)
Heartbeat CPU 0 instructions: 60000010 cycles: 116581356 heartbeat IPC: 0.2581 cumulative IPC: 0.3825 (Simulation time: 00 hr 12 min 36 sec)
Simulation finished CPU 0 instructions: 50000000 cycles: 124994619 cumulative IPC: 0.4 (Simulation time: 00 hr 14 min 49 sec)
Simulation complete CPU 0 instructions: 50000000 cycles: 124994619 cumulative IPC: 0.4 (Simulation time: 00 hr 14 min 49 sec)

ChampSim completed all CPUs

=== Simulation ===
CPU 0 runs traces/429.mcf-217B.champsimtrace.xz

Region of Interest Statistics

CPU 0 cumulative IPC: 0.4 instructions: 50000000 cycles: 124994619
CPU 0 Branch Prediction Accuracy: 98.95% MPKI: 1.194 Average ROB Occupancy at Mispredict: 121.1
Branch type MPKI
BRANCH_DIRECT_JUMP: 0
BRANCH_INDIRECT: 0
BRANCH_CONDITIONAL: 1.194
BRANCH_DIRECT_CALL: 0
BRANCH_INDIRECT_CALL: 0
BRANCH_RETURN: 0

cpu0->cpu0_STLB TOTAL        ACCESS:      57987 HIT:      56137 MISS:       1850 MSHR_MERGE:          0
cpu0->cpu0_STLB LOAD         ACCESS:      57987 HIT:      56137 MISS:       1850 MSHR_MERGE:          0
cpu0->cpu0_STLB RFO          ACCESS:          0 HIT:          0 MISS:          0 MSHR_MERGE:          0
cpu0->cpu0_STLB PREFETCH     ACCESS:          0 HIT:          0 MISS:          0 MSHR_MERGE:          0
cpu0->cpu0_STLB WRITE        ACCESS:          0 HIT:          0 MISS:          0 MSHR_MERGE:          0
cpu0->cpu0_STLB TRANSLATION  ACCESS:          0 HIT:          0 MISS:          0 MSHR_MERGE:          0
cpu0->cpu0_STLB PREFETCH REQUESTED:          0 ISSUED:          0 USEFUL:          0 USELESS:          0
cpu0->cpu0_STLB AVERAGE MISS LATENCY: 683.5 cycles
cpu0->cpu0_L2C TOTAL        ACCESS:    2699642 HIT:     117049 MISS:    2582593 MSHR_MERGE:          0
cpu0->cpu0_L2C LOAD         ACCESS:    2598459 HIT:      19824 MISS:    2578635 MSHR_MERGE:          0
cpu0->cpu0_L2C RFO          ACCESS:       1568 HIT:       1364 MISS:        204 MSHR_MERGE:          0
cpu0->cpu0_L2C PREFETCH     ACCESS:          0 HIT:          0 MISS:          0 MSHR_MERGE:          0
cpu0->cpu0_L2C WRITE        ACCESS:      96225 HIT:      95362 MISS:        863 MSHR_MERGE:          0
cpu0->cpu0_L2C TRANSLATION  ACCESS:       3390 HIT:        499 MISS:       2891 MSHR_MERGE:          0
cpu0->cpu0_L2C PREFETCH REQUESTED:          0 ISSUED:          0 USEFUL:          0 USELESS:          0
cpu0->cpu0_L2C AVERAGE MISS LATENCY: 71.18 cycles
cpu0->cpu0_L1I TOTAL        ACCESS:    9521471 HIT:    9521471 MISS:          0 MSHR_MERGE:          0
cpu0->cpu0_L1I LOAD         ACCESS:    9521471 HIT:    9521471 MISS:          0 MSHR_MERGE:          0
cpu0->cpu0_L1I RFO          ACCESS:          0 HIT:          0 MISS:          0 MSHR_MERGE:          0
cpu0->cpu0_L1I PREFETCH     ACCESS:          0 HIT:          0 MISS:          0 MSHR_MERGE:          0
cpu0->cpu0_L1I WRITE        ACCESS:          0 HIT:          0 MISS:          0 MSHR_MERGE:          0
cpu0->cpu0_L1I TRANSLATION  ACCESS:          0 HIT:          0 MISS:          0 MSHR_MERGE:          0
cpu0->cpu0_L1I PREFETCH REQUESTED:          0 ISSUED:          0 USEFUL:          0 USELESS:          0
cpu0->cpu0_L1I AVERAGE MISS LATENCY: - cycles
cpu0->cpu0_L1D TOTAL        ACCESS:   16507782 HIT:   13767646 MISS:    2740136 MSHR_MERGE:     136686
cpu0->cpu0_L1D LOAD         ACCESS:    8629702 HIT:    5896785 MISS:    2732917 MSHR_MERGE:     134425
cpu0->cpu0_L1D RFO          ACCESS:          0 HIT:          0 MISS:          0 MSHR_MERGE:          0
cpu0->cpu0_L1D PREFETCH     ACCESS:          0 HIT:          0 MISS:          0 MSHR_MERGE:          0
cpu0->cpu0_L1D WRITE        ACCESS:    7874373 HIT:    7870544 MISS:       3829 MSHR_MERGE:       2261
cpu0->cpu0_L1D TRANSLATION  ACCESS:       3707 HIT:        317 MISS:       3390 MSHR_MERGE:          0
cpu0->cpu0_L1D PREFETCH REQUESTED:          0 ISSUED:          0 USEFUL:          0 USELESS:          0
cpu0->cpu0_L1D AVERAGE MISS LATENCY: 79.6 cycles
cpu0->cpu0_ITLB TOTAL        ACCESS:    8349545 HIT:    8349545 MISS:          0 MSHR_MERGE:          0
cpu0->cpu0_ITLB LOAD         ACCESS:    8349545 HIT:    8349545 MISS:          0 MSHR_MERGE:          0
cpu0->cpu0_ITLB RFO          ACCESS:          0 HIT:          0 MISS:          0 MSHR_MERGE:          0
cpu0->cpu0_ITLB PREFETCH     ACCESS:          0 HIT:          0 MISS:          0 MSHR_MERGE:          0
cpu0->cpu0_ITLB WRITE        ACCESS:          0 HIT:          0 MISS:          0 MSHR_MERGE:          0
cpu0->cpu0_ITLB TRANSLATION  ACCESS:          0 HIT:          0 MISS:          0 MSHR_MERGE:          0
cpu0->cpu0_ITLB PREFETCH REQUESTED:          0 ISSUED:          0 USEFUL:          0 USELESS:          0
cpu0->cpu0_ITLB AVERAGE MISS LATENCY: - cycles
cpu0->cpu0_DTLB TOTAL        ACCESS:   14984481 HIT:   14910882 MISS:      73599 MSHR_MERGE:      15612
cpu0->cpu0_DTLB LOAD         ACCESS:   14984481 HIT:   14910882 MISS:      73599 MSHR_MERGE:      15612
cpu0->cpu0_DTLB RFO          ACCESS:          0 HIT:          0 MISS:          0 MSHR_MERGE:          0
cpu0->cpu0_DTLB PREFETCH     ACCESS:          0 HIT:          0 MISS:          0 MSHR_MERGE:          0
cpu0->cpu0_DTLB WRITE        ACCESS:          0 HIT:          0 MISS:          0 MSHR_MERGE:          0
cpu0->cpu0_DTLB TRANSLATION  ACCESS:          0 HIT:          0 MISS:          0 MSHR_MERGE:          0
cpu0->cpu0_DTLB PREFETCH REQUESTED:          0 ISSUED:          0 USEFUL:          0 USELESS:          0
cpu0->cpu0_DTLB AVERAGE MISS LATENCY: 25.84 cycles
cpu0->LLC TOTAL        ACCESS:    2662288 HIT:    1666852 MISS:     995436 MSHR_MERGE:          0
cpu0->LLC LOAD         ACCESS:    2578634 HIT:    1621868 MISS:     956766 MSHR_MERGE:          0
cpu0->LLC RFO          ACCESS:        204 HIT:        173 MISS:         31 MSHR_MERGE:          0
cpu0->LLC PREFETCH     ACCESS:          0 HIT:          0 MISS:          0 MSHR_MERGE:          0
cpu0->LLC WRITE        ACCESS:      80559 HIT:      44769 MISS:      35790 MSHR_MERGE:          0
cpu0->LLC TRANSLATION  ACCESS:       2891 HIT:         42 MISS:       2849 MSHR_MERGE:          0
cpu0->LLC PREFETCH REQUESTED:          0 ISSUED:          0 USEFUL:          0 USELESS:          0
cpu0->LLC AVERAGE MISS LATENCY: 142.5 cycles

DRAM Statistics

Channel 0 RQ ROW_BUFFER_HIT:     113960
  ROW_BUFFER_MISS:     845682
  AVG DBUS CONGESTED CYCLE: 21.06
Channel 0 WQ ROW_BUFFER_HIT:      18173
  ROW_BUFFER_MISS:      57333
  FULL:          0
Channel 0 REFRESHES ISSUED:      10417
