[VMEM] WARNING: physical memory size is smaller than virtual memory size.
WARNING: option --warmup_instructions is deprecated. Use --warmup-instructions instead.
WARNING: option --simulation_instructions is deprecated. Use --simulation-instructions instead.

*** ChampSim Multicore Out-of-Order Simulator ***
Warmup Instructions: 20000000
Simulation Instructions: 50000000
Number of CPUs: 1
Page size: 8192

Off-chip DRAM Size: 16 GiB Channels: 1 Width: 64-bit Data Rate: 3205 MT/s
Heartbeat CPU 0 instructions: 10000000 cycles: 6773008 heartbeat IPC: 1.476 cumulative IPC: 1.476 (Simulation time: 00 hr 01 min 04 sec)
Heartbeat CPU 0 instructions: 20000005 cycles: 10658953 heartbeat IPC: 2.573 cumulative IPC: 1.876 (Simulation time: 00 hr 01 min 52 sec)
Warmup finished CPU 0 instructions: 20000005 cycles: 10658953 cumulative IPC: 1.876 (Simulation time: 00 hr 01 min 52 sec)
Warmup complete CPU 0 instructions: 20000005 cycles: 10658953 cumulative IPC: 1.876 (Simulation time: 00 hr 01 min 52 sec)
Heartbeat CPU 0 instructions: 30000007 cycles: 57638733 heartbeat IPC: 0.2129 cumulative IPC: 0.2129 (Simulation time: 00 hr 05 min 40 sec)
Heartbeat CPU 0 instructions: 40000013 cycles: 105396810 heartbeat IPC: 0.2094 cumulative IPC: 0.2111 (Simulation time: 00 hr 09 min 43 sec)
Heartbeat CPU 0 instructions: 50000018 cycles: 153283581 heartbeat IPC: 0.2088 cumulative IPC: 0.2103 (Simulation time: 00 hr 13 min 46 sec)
Heartbeat CPU 0 instructions: 60000018 cycles: 200607495 heartbeat IPC: 0.2113 cumulative IPC: 0.2106 (Simulation time: 01 hr 07 min 33 sec)
Simulation finished CPU 0 instructions: 50000002 cycles: 238691629 cumulative IPC: 0.2095 (Simulation time: 01 hr 31 min 32 sec)
Simulation complete CPU 0 instructions: 50000002 cycles: 238691629 cumulative IPC: 0.2095 (Simulation time: 01 hr 31 min 32 sec)

ChampSim completed all CPUs

=== Simulation ===
CPU 0 runs traces/473.astar-359B.champsimtrace.xz

Region of Interest Statistics

CPU 0 cumulative IPC: 0.2095 instructions: 50000002 cycles: 238691629
CPU 0 Branch Prediction Accuracy: 93.2% MPKI: 13.43 Average ROB Occupancy at Mispredict: 43.17
Branch type MPKI
BRANCH_DIRECT_JUMP: 0
BRANCH_INDIRECT: 0
BRANCH_CONDITIONAL: 13.42
BRANCH_DIRECT_CALL: 0
BRANCH_INDIRECT_CALL: 0.00054
BRANCH_RETURN: 0

cpu0->cpu0_STLB TOTAL        ACCESS:    1275546 HIT:     889281 MISS:     386265 MSHR_MERGE:          0
cpu0->cpu0_STLB LOAD         ACCESS:    1275546 HIT:     889281 MISS:     386265 MSHR_MERGE:          0
cpu0->cpu0_STLB RFO          ACCESS:          0 HIT:          0 MISS:          0 MSHR_MERGE:          0
cpu0->cpu0_STLB PREFETCH     ACCESS:          0 HIT:          0 MISS:          0 MSHR_MERGE:          0
cpu0->cpu0_STLB WRITE        ACCESS:          0 HIT:          0 MISS:          0 MSHR_MERGE:          0
cpu0->cpu0_STLB TRANSLATION  ACCESS:          0 HIT:          0 MISS:          0 MSHR_MERGE:          0
cpu0->cpu0_STLB PREFETCH REQUESTED:          0 ISSUED:          0 USEFUL:          0 USELESS:          0
cpu0->cpu0_STLB AVERAGE MISS LATENCY: 578.5 cycles
cpu0->cpu0_L2C TOTAL        ACCESS:    6336668 HIT:    2889485 MISS:    3447183 MSHR_MERGE:      87413
cpu0->cpu0_L2C LOAD         ACCESS:    1775433 HIT:     932722 MISS:     842711 MSHR_MERGE:      17647
cpu0->cpu0_L2C RFO          ACCESS:     767625 HIT:      42528 MISS:     725097 MSHR_MERGE:          0
cpu0->cpu0_L2C PREFETCH     ACCESS:    1974982 HIT:     740228 MISS:    1234754 MSHR_MERGE:      69766
cpu0->cpu0_L2C WRITE        ACCESS:    1168857 HIT:    1168405 MISS:        452 MSHR_MERGE:          0
cpu0->cpu0_L2C TRANSLATION  ACCESS:     649771 HIT:       5602 MISS:     644169 MSHR_MERGE:          0
cpu0->cpu0_L2C PREFETCH REQUESTED:    1980190 ISSUED:    1974982 USEFUL:     307998 USELESS:     719906
cpu0->cpu0_L2C AVERAGE MISS LATENCY: 242.2 cycles
cpu0->cpu0_L1I TOTAL        ACCESS:     641271 HIT:     641264 MISS:          7 MSHR_MERGE:          0
cpu0->cpu0_L1I LOAD         ACCESS:     641271 HIT:     641264 MISS:          7 MSHR_MERGE:          0
cpu0->cpu0_L1I RFO          ACCESS:          0 HIT:          0 MISS:          0 MSHR_MERGE:          0
cpu0->cpu0_L1I PREFETCH     ACCESS:          0 HIT:          0 MISS:          0 MSHR_MERGE:          0
cpu0->cpu0_L1I WRITE        ACCESS:          0 HIT:          0 MISS:          0 MSHR_MERGE:          0
cpu0->cpu0_L1I TRANSLATION  ACCESS:          0 HIT:          0 MISS:          0 MSHR_MERGE:          0
cpu0->cpu0_L1I PREFETCH REQUESTED:          0 ISSUED:          0 USEFUL:          0 USELESS:          0
cpu0->cpu0_L1I AVERAGE MISS LATENCY: 191.6 cycles
cpu0->cpu0_L1D TOTAL        ACCESS:   19737489 HIT:   15979982 MISS:    3757507 MSHR_MERGE:     564681
cpu0->cpu0_L1D LOAD         ACCESS:   12657018 HIT:   10412761 MISS:    2244257 MSHR_MERGE:     468829
cpu0->cpu0_L1D RFO          ACCESS:          0 HIT:          0 MISS:          0 MSHR_MERGE:          0
cpu0->cpu0_L1D PREFETCH     ACCESS:          0 HIT:          0 MISS:          0 MSHR_MERGE:          0
cpu0->cpu0_L1D WRITE        ACCESS:    6302985 HIT:    5535265 MISS:     767720 MSHR_MERGE:         93
cpu0->cpu0_L1D TRANSLATION  ACCESS:     777486 HIT:      31956 MISS:     745530 MSHR_MERGE:      95759
cpu0->cpu0_L1D PREFETCH REQUESTED:          0 ISSUED:          0 USEFUL:          0 USELESS:          0
cpu0->cpu0_L1D AVERAGE MISS LATENCY: 177.1 cycles
cpu0->cpu0_ITLB TOTAL        ACCESS:     638357 HIT:     638357 MISS:          0 MSHR_MERGE:          0
cpu0->cpu0_ITLB LOAD         ACCESS:     638357 HIT:     638357 MISS:          0 MSHR_MERGE:          0
cpu0->cpu0_ITLB RFO          ACCESS:          0 HIT:          0 MISS:          0 MSHR_MERGE:          0
cpu0->cpu0_ITLB PREFETCH     ACCESS:          0 HIT:          0 MISS:          0 MSHR_MERGE:          0
cpu0->cpu0_ITLB WRITE        ACCESS:          0 HIT:          0 MISS:          0 MSHR_MERGE:          0
cpu0->cpu0_ITLB TRANSLATION  ACCESS:          0 HIT:          0 MISS:          0 MSHR_MERGE:          0
cpu0->cpu0_ITLB PREFETCH REQUESTED:          0 ISSUED:          0 USEFUL:          0 USELESS:          0
cpu0->cpu0_ITLB AVERAGE MISS LATENCY: - cycles
cpu0->cpu0_DTLB TOTAL        ACCESS:   18044117 HIT:   16207803 MISS:    1836314 MSHR_MERGE:     560768
cpu0->cpu0_DTLB LOAD         ACCESS:   18044117 HIT:   16207803 MISS:    1836314 MSHR_MERGE:     560768
cpu0->cpu0_DTLB RFO          ACCESS:          0 HIT:          0 MISS:          0 MSHR_MERGE:          0
cpu0->cpu0_DTLB PREFETCH     ACCESS:          0 HIT:          0 MISS:          0 MSHR_MERGE:          0
cpu0->cpu0_DTLB WRITE        ACCESS:          0 HIT:          0 MISS:          0 MSHR_MERGE:          0
cpu0->cpu0_DTLB TRANSLATION  ACCESS:          0 HIT:          0 MISS:          0 MSHR_MERGE:          0
cpu0->cpu0_DTLB PREFETCH REQUESTED:          0 ISSUED:          0 USEFUL:          0 USELESS:          0
cpu0->cpu0_DTLB AVERAGE MISS LATENCY: 179.5 cycles
cpu0->LLC TOTAL        ACCESS:    4486548 HIT:    1106460 MISS:    3380088 MSHR_MERGE:      24349
cpu0->LLC LOAD         ACCESS:     825063 HIT:     257323 MISS:     567740 MSHR_MERGE:       1883
cpu0->LLC RFO          ACCESS:     725097 HIT:     204532 MISS:     520565 MSHR_MERGE:          0
cpu0->LLC PREFETCH     ACCESS:    1164988 HIT:     189916 MISS:     975072 MSHR_MERGE:      22466
cpu0->LLC WRITE        ACCESS:    1127231 HIT:     388831 MISS:     738400 MSHR_MERGE:          0
cpu0->LLC TRANSLATION  ACCESS:     644169 HIT:      65858 MISS:     578311 MSHR_MERGE:          0
cpu0->LLC PREFETCH REQUESTED:          0 ISSUED:          0 USEFUL:          0 USELESS:          0
cpu0->LLC AVERAGE MISS LATENCY: 209.3 cycles

DRAM Statistics

Channel 0 RQ ROW_BUFFER_HIT:      68551
  ROW_BUFFER_MISS:    2545979
  AVG DBUS CONGESTED CYCLE: 18.95
Channel 0 WQ ROW_BUFFER_HIT:     138743
  ROW_BUFFER_MISS:     655190
  FULL:         49
Channel 0 REFRESHES ISSUED:      19891
