[VMEM] WARNING: physical memory size is smaller than virtual memory size.
WARNING: option --warmup_instructions is deprecated. Use --warmup-instructions instead.
WARNING: option --simulation_instructions is deprecated. Use --simulation-instructions instead.

*** ChampSim Multicore Out-of-Order Simulator ***
Warmup Instructions: 20000000
Simulation Instructions: 50000000
Number of CPUs: 1
Page size: 8192

Off-chip DRAM Size: 16 GiB Channels: 1 Width: 64-bit Data Rate: 3205 MT/s
Heartbeat CPU 0 instructions: 10000000 cycles: 4310198 heartbeat IPC: 2.32 cumulative IPC: 2.32 (Simulation time: 00 hr 00 min 46 sec)
Heartbeat CPU 0 instructions: 20000000 cycles: 8612201 heartbeat IPC: 2.324 cumulative IPC: 2.322 (Simulation time: 00 hr 01 min 32 sec)
Warmup finished CPU 0 instructions: 20000000 cycles: 8612201 cumulative IPC: 2.322 (Simulation time: 00 hr 01 min 32 sec)
Warmup complete CPU 0 instructions: 20000000 cycles: 8612201 cumulative IPC: 2.322 (Simulation time: 00 hr 01 min 32 sec)
Heartbeat CPU 0 instructions: 30000002 cycles: 21104546 heartbeat IPC: 0.8005 cumulative IPC: 0.8005 (Simulation time: 00 hr 03 min 04 sec)
Heartbeat CPU 0 instructions: 40000004 cycles: 33742226 heartbeat IPC: 0.7913 cumulative IPC: 0.7959 (Simulation time: 00 hr 04 min 34 sec)
Heartbeat CPU 0 instructions: 50000007 cycles: 46240469 heartbeat IPC: 0.8001 cumulative IPC: 0.7973 (Simulation time: 00 hr 06 min 04 sec)
Heartbeat CPU 0 instructions: 60000009 cycles: 58751356 heartbeat IPC: 0.7993 cumulative IPC: 0.7978 (Simulation time: 00 hr 07 min 33 sec)
Simulation finished CPU 0 instructions: 50000000 cycles: 62686195 cumulative IPC: 0.7976 (Simulation time: 00 hr 09 min 04 sec)
Simulation complete CPU 0 instructions: 50000000 cycles: 62686195 cumulative IPC: 0.7976 (Simulation time: 00 hr 09 min 04 sec)

ChampSim completed all CPUs

=== Simulation ===
CPU 0 runs traces/603.bwaves_s-1740B.champsimtrace.xz

Region of Interest Statistics

CPU 0 cumulative IPC: 0.7976 instructions: 50000000 cycles: 62686195
CPU 0 Branch Prediction Accuracy: 99.97% MPKI: 0.00734 Average ROB Occupancy at Mispredict: 189.5
Branch type MPKI
BRANCH_DIRECT_JUMP: 0
BRANCH_INDIRECT: 0
BRANCH_CONDITIONAL: 0.00734
BRANCH_DIRECT_CALL: 0
BRANCH_INDIRECT_CALL: 0
BRANCH_RETURN: 0

cpu0->cpu0_STLB TOTAL        ACCESS:       7425 HIT:        365 MISS:       7060 MSHR_MERGE:          0
cpu0->cpu0_STLB LOAD         ACCESS:       7425 HIT:        365 MISS:       7060 MSHR_MERGE:          0
cpu0->cpu0_STLB RFO          ACCESS:          0 HIT:          0 MISS:          0 MSHR_MERGE:          0
cpu0->cpu0_STLB PREFETCH     ACCESS:          0 HIT:          0 MISS:          0 MSHR_MERGE:          0
cpu0->cpu0_STLB WRITE        ACCESS:          0 HIT:          0 MISS:          0 MSHR_MERGE:          0
cpu0->cpu0_STLB TRANSLATION  ACCESS:          0 HIT:          0 MISS:          0 MSHR_MERGE:          0
cpu0->cpu0_STLB PREFETCH REQUESTED:          0 ISSUED:          0 USEFUL:          0 USELESS:          0
cpu0->cpu0_STLB AVERAGE MISS LATENCY: 692.6 cycles
cpu0->cpu0_L2C TOTAL        ACCESS:    1103854 HIT:     135151 MISS:     968703 MSHR_MERGE:          0
cpu0->cpu0_L2C LOAD         ACCESS:    1019423 HIT:      85845 MISS:     933578 MSHR_MERGE:          0
cpu0->cpu0_L2C RFO          ACCESS:      33779 HIT:       9417 MISS:      24362 MSHR_MERGE:          0
cpu0->cpu0_L2C PREFETCH     ACCESS:          0 HIT:          0 MISS:          0 MSHR_MERGE:          0
cpu0->cpu0_L2C WRITE        ACCESS:      37069 HIT:      36773 MISS:        296 MSHR_MERGE:          0
cpu0->cpu0_L2C TRANSLATION  ACCESS:      13583 HIT:       3116 MISS:      10467 MSHR_MERGE:          0
cpu0->cpu0_L2C PREFETCH REQUESTED:          0 ISSUED:          0 USEFUL:          0 USELESS:          0
cpu0->cpu0_L2C AVERAGE MISS LATENCY: 194.9 cycles
cpu0->cpu0_L1I TOTAL        ACCESS:   12225709 HIT:   12225709 MISS:          0 MSHR_MERGE:          0
cpu0->cpu0_L1I LOAD         ACCESS:   12225709 HIT:   12225709 MISS:          0 MSHR_MERGE:          0
cpu0->cpu0_L1I RFO          ACCESS:          0 HIT:          0 MISS:          0 MSHR_MERGE:          0
cpu0->cpu0_L1I PREFETCH     ACCESS:          0 HIT:          0 MISS:          0 MSHR_MERGE:          0
cpu0->cpu0_L1I WRITE        ACCESS:          0 HIT:          0 MISS:          0 MSHR_MERGE:          0
cpu0->cpu0_L1I TRANSLATION  ACCESS:          0 HIT:          0 MISS:          0 MSHR_MERGE:          0
cpu0->cpu0_L1I PREFETCH REQUESTED:          0 ISSUED:          0 USEFUL:          0 USELESS:          0
cpu0->cpu0_L1I AVERAGE MISS LATENCY: - cycles
cpu0->cpu0_L1D TOTAL        ACCESS:   17153399 HIT:   15799917 MISS:    1353482 MSHR_MERGE:     286649
cpu0->cpu0_L1D LOAD         ACCESS:   14322638 HIT:   13032384 MISS:    1290254 MSHR_MERGE:     270789
cpu0->cpu0_L1D RFO          ACCESS:          0 HIT:          0 MISS:          0 MSHR_MERGE:          0
cpu0->cpu0_L1D PREFETCH     ACCESS:          0 HIT:          0 MISS:          0 MSHR_MERGE:          0
cpu0->cpu0_L1D WRITE        ACCESS:    2816699 HIT:    2767271 MISS:      49428 MSHR_MERGE:      15643
cpu0->cpu0_L1D TRANSLATION  ACCESS:      14062 HIT:        262 MISS:      13800 MSHR_MERGE:        217
cpu0->cpu0_L1D PREFETCH REQUESTED:          0 ISSUED:          0 USEFUL:          0 USELESS:          0
cpu0->cpu0_L1D AVERAGE MISS LATENCY: 185.9 cycles
cpu0->cpu0_ITLB TOTAL        ACCESS:   11126881 HIT:   11126881 MISS:          0 MSHR_MERGE:          0
cpu0->cpu0_ITLB LOAD         ACCESS:   11126881 HIT:   11126881 MISS:          0 MSHR_MERGE:          0
cpu0->cpu0_ITLB RFO          ACCESS:          0 HIT:          0 MISS:          0 MSHR_MERGE:          0
cpu0->cpu0_ITLB PREFETCH     ACCESS:          0 HIT:          0 MISS:          0 MSHR_MERGE:          0
cpu0->cpu0_ITLB WRITE        ACCESS:          0 HIT:          0 MISS:          0 MSHR_MERGE:          0
cpu0->cpu0_ITLB TRANSLATION  ACCESS:          0 HIT:          0 MISS:          0 MSHR_MERGE:          0
cpu0->cpu0_ITLB PREFETCH REQUESTED:          0 ISSUED:          0 USEFUL:          0 USELESS:          0
cpu0->cpu0_ITLB AVERAGE MISS LATENCY: - cycles
cpu0->cpu0_DTLB TOTAL        ACCESS:   16481144 HIT:   16468840 MISS:      12304 MSHR_MERGE:       4879
cpu0->cpu0_DTLB LOAD         ACCESS:   16481144 HIT:   16468840 MISS:      12304 MSHR_MERGE:       4879
cpu0->cpu0_DTLB RFO          ACCESS:          0 HIT:          0 MISS:          0 MSHR_MERGE:          0
cpu0->cpu0_DTLB PREFETCH     ACCESS:          0 HIT:          0 MISS:          0 MSHR_MERGE:          0
cpu0->cpu0_DTLB WRITE        ACCESS:          0 HIT:          0 MISS:          0 MSHR_MERGE:          0
cpu0->cpu0_DTLB TRANSLATION  ACCESS:          0 HIT:          0 MISS:          0 MSHR_MERGE:          0
cpu0->cpu0_DTLB PREFETCH REQUESTED:          0 ISSUED:          0 USEFUL:          0 USELESS:          0
cpu0->cpu0_DTLB AVERAGE MISS LATENCY: 663.5 cycles
cpu0->LLC TOTAL        ACCESS:     993122 HIT:        948 MISS:     992174 MSHR_MERGE:          0
cpu0->LLC LOAD         ACCESS:     933578 HIT:        602 MISS:     932976 MSHR_MERGE:          0
cpu0->LLC RFO          ACCESS:      24362 HIT:          0 MISS:      24362 MSHR_MERGE:          0
cpu0->LLC PREFETCH     ACCESS:          0 HIT:          0 MISS:          0 MSHR_MERGE:          0
cpu0->LLC WRITE        ACCESS:      24715 HIT:        346 MISS:      24369 MSHR_MERGE:          0
cpu0->LLC TRANSLATION  ACCESS:      10467 HIT:          0 MISS:      10467 MSHR_MERGE:          0
cpu0->LLC PREFETCH REQUESTED:          0 ISSUED:          0 USEFUL:          0 USELESS:          0
cpu0->LLC AVERAGE MISS LATENCY: 174 cycles

DRAM Statistics

Channel 0 RQ ROW_BUFFER_HIT:        623
  ROW_BUFFER_MISS:     967182
  AVG DBUS CONGESTED CYCLE: 6.076
Channel 0 WQ ROW_BUFFER_HIT:       4498
  ROW_BUFFER_MISS:      20045
  FULL:          0
Channel 0 REFRESHES ISSUED:       5224
