[VMEM] WARNING: physical memory size is smaller than virtual memory size.
WARNING: option --warmup_instructions is deprecated. Use --warmup-instructions instead.
WARNING: option --simulation_instructions is deprecated. Use --simulation-instructions instead.

*** ChampSim Multicore Out-of-Order Simulator ***
Warmup Instructions: 20000000
Simulation Instructions: 50000000
Number of CPUs: 1
Page size: 8192

Off-chip DRAM Size: 16 GiB Channels: 1 Width: 64-bit Data Rate: 3205 MT/s
Heartbeat CPU 0 instructions: 10000003 cycles: 8053435 heartbeat IPC: 1.242 cumulative IPC: 1.242 (Simulation time: 00 hr 01 min 13 sec)
Warmup finished CPU 0 instructions: 20000000 cycles: 14889425 cumulative IPC: 1.343 (Simulation time: 00 hr 02 min 18 sec)
Warmup complete CPU 0 instructions: 20000000 cycles: 14889425 cumulative IPC: 1.343 (Simulation time: 00 hr 02 min 18 sec)
Heartbeat CPU 0 instructions: 20000004 cycles: 14889426 heartbeat IPC: 1.463 cumulative IPC: 4 (Simulation time: 00 hr 02 min 18 sec)
Heartbeat CPU 0 instructions: 30000006 cycles: 42106121 heartbeat IPC: 0.3674 cumulative IPC: 0.3674 (Simulation time: 00 hr 04 min 48 sec)
Heartbeat CPU 0 instructions: 40000008 cycles: 69537889 heartbeat IPC: 0.3645 cumulative IPC: 0.366 (Simulation time: 00 hr 07 min 21 sec)
Heartbeat CPU 0 instructions: 50000008 cycles: 96976507 heartbeat IPC: 0.3644 cumulative IPC: 0.3655 (Simulation time: 00 hr 09 min 54 sec)
Heartbeat CPU 0 instructions: 60000011 cycles: 122757482 heartbeat IPC: 0.3879 cumulative IPC: 0.3708 (Simulation time: 00 hr 12 min 23 sec)
Simulation finished CPU 0 instructions: 50000001 cycles: 132911297 cumulative IPC: 0.3762 (Simulation time: 00 hr 14 min 47 sec)
Simulation complete CPU 0 instructions: 50000001 cycles: 132911297 cumulative IPC: 0.3762 (Simulation time: 00 hr 14 min 47 sec)

ChampSim completed all CPUs

=== Simulation ===
CPU 0 runs traces/620.omnetpp_s-874B.champsimtrace.xz

Region of Interest Statistics

CPU 0 cumulative IPC: 0.3762 instructions: 50000001 cycles: 132911297
CPU 0 Branch Prediction Accuracy: 96.16% MPKI: 7.99 Average ROB Occupancy at Mispredict: 58.75
Branch type MPKI
BRANCH_DIRECT_JUMP: 0.9384
BRANCH_INDIRECT: 0.1208
BRANCH_CONDITIONAL: 5.805
BRANCH_DIRECT_CALL: 0.00236
BRANCH_INDIRECT_CALL: 0.7298
BRANCH_RETURN: 0.3936

cpu0->cpu0_STLB TOTAL        ACCESS:     828275 HIT:     691179 MISS:     137096 MSHR_MERGE:          0
cpu0->cpu0_STLB LOAD         ACCESS:     828275 HIT:     691179 MISS:     137096 MSHR_MERGE:          0
cpu0->cpu0_STLB RFO          ACCESS:          0 HIT:          0 MISS:          0 MSHR_MERGE:          0
cpu0->cpu0_STLB PREFETCH     ACCESS:          0 HIT:          0 MISS:          0 MSHR_MERGE:          0
cpu0->cpu0_STLB WRITE        ACCESS:          0 HIT:          0 MISS:          0 MSHR_MERGE:          0
cpu0->cpu0_STLB TRANSLATION  ACCESS:          0 HIT:          0 MISS:          0 MSHR_MERGE:          0
cpu0->cpu0_STLB PREFETCH REQUESTED:          0 ISSUED:          0 USEFUL:          0 USELESS:          0
cpu0->cpu0_STLB AVERAGE MISS LATENCY: 347 cycles
cpu0->cpu0_L2C TOTAL        ACCESS:    2547574 HIT:    1080940 MISS:    1466634 MSHR_MERGE:     103981
cpu0->cpu0_L2C LOAD         ACCESS:     682156 HIT:     264989 MISS:     417167 MSHR_MERGE:      20811
cpu0->cpu0_L2C RFO          ACCESS:      85253 HIT:      36409 MISS:      48844 MSHR_MERGE:       2064
cpu0->cpu0_L2C PREFETCH     ACCESS:    1076246 HIT:     342947 MISS:     733299 MSHR_MERGE:      81106
cpu0->cpu0_L2C WRITE        ACCESS:     415293 HIT:     412859 MISS:       2434 MSHR_MERGE:          0
cpu0->cpu0_L2C TRANSLATION  ACCESS:     288626 HIT:      23736 MISS:     264890 MSHR_MERGE:          0
cpu0->cpu0_L2C PREFETCH REQUESTED:    1076793 ISSUED:    1076246 USEFUL:     143222 USELESS:     507519
cpu0->cpu0_L2C AVERAGE MISS LATENCY: 143.4 cycles
cpu0->cpu0_L1I TOTAL        ACCESS:    7342717 HIT:    7342186 MISS:        531 MSHR_MERGE:        158
cpu0->cpu0_L1I LOAD         ACCESS:    7342717 HIT:    7342186 MISS:        531 MSHR_MERGE:        158
cpu0->cpu0_L1I RFO          ACCESS:          0 HIT:          0 MISS:          0 MSHR_MERGE:          0
cpu0->cpu0_L1I PREFETCH     ACCESS:          0 HIT:          0 MISS:          0 MSHR_MERGE:          0
cpu0->cpu0_L1I WRITE        ACCESS:          0 HIT:          0 MISS:          0 MSHR_MERGE:          0
cpu0->cpu0_L1I TRANSLATION  ACCESS:          0 HIT:          0 MISS:          0 MSHR_MERGE:          0
cpu0->cpu0_L1I PREFETCH REQUESTED:          0 ISSUED:          0 USEFUL:          0 USELESS:          0
cpu0->cpu0_L1I AVERAGE MISS LATENCY: 110.2 cycles
cpu0->cpu0_L1D TOTAL        ACCESS:   18473719 HIT:   17140708 MISS:    1333011 MSHR_MERGE:     277343
cpu0->cpu0_L1D LOAD         ACCESS:    9142493 HIT:    8288256 MISS:     854237 MSHR_MERGE:     172450
cpu0->cpu0_L1D RFO          ACCESS:          0 HIT:          0 MISS:          0 MSHR_MERGE:          0
cpu0->cpu0_L1D PREFETCH     ACCESS:          0 HIT:          0 MISS:          0 MSHR_MERGE:          0
cpu0->cpu0_L1D WRITE        ACCESS:    9029970 HIT:    8840225 MISS:     189745 MSHR_MERGE:     104490
cpu0->cpu0_L1D TRANSLATION  ACCESS:     301256 HIT:      12227 MISS:     289029 MSHR_MERGE:        403
cpu0->cpu0_L1D PREFETCH REQUESTED:          0 ISSUED:          0 USEFUL:          0 USELESS:          0
cpu0->cpu0_L1D AVERAGE MISS LATENCY: 108.3 cycles
cpu0->cpu0_ITLB TOTAL        ACCESS:    6936946 HIT:    6936745 MISS:        201 MSHR_MERGE:         97
cpu0->cpu0_ITLB LOAD         ACCESS:    6936946 HIT:    6936745 MISS:        201 MSHR_MERGE:         97
cpu0->cpu0_ITLB RFO          ACCESS:          0 HIT:          0 MISS:          0 MSHR_MERGE:          0
cpu0->cpu0_ITLB PREFETCH     ACCESS:          0 HIT:          0 MISS:          0 MSHR_MERGE:          0
cpu0->cpu0_ITLB WRITE        ACCESS:          0 HIT:          0 MISS:          0 MSHR_MERGE:          0
cpu0->cpu0_ITLB TRANSLATION  ACCESS:          0 HIT:          0 MISS:          0 MSHR_MERGE:          0
cpu0->cpu0_ITLB PREFETCH REQUESTED:          0 ISSUED:          0 USEFUL:          0 USELESS:          0
cpu0->cpu0_ITLB AVERAGE MISS LATENCY: 194 cycles
cpu0->cpu0_DTLB TOTAL        ACCESS:   16962877 HIT:   16023088 MISS:     939789 MSHR_MERGE:     111617
cpu0->cpu0_DTLB LOAD         ACCESS:   16962877 HIT:   16023088 MISS:     939789 MSHR_MERGE:     111617
cpu0->cpu0_DTLB RFO          ACCESS:          0 HIT:          0 MISS:          0 MSHR_MERGE:          0
cpu0->cpu0_DTLB PREFETCH     ACCESS:          0 HIT:          0 MISS:          0 MSHR_MERGE:          0
cpu0->cpu0_DTLB WRITE        ACCESS:          0 HIT:          0 MISS:          0 MSHR_MERGE:          0
cpu0->cpu0_DTLB TRANSLATION  ACCESS:          0 HIT:          0 MISS:          0 MSHR_MERGE:          0
cpu0->cpu0_DTLB PREFETCH REQUESTED:          0 ISSUED:          0 USEFUL:          0 USELESS:          0
cpu0->cpu0_DTLB AVERAGE MISS LATENCY: 61.59 cycles
cpu0->LLC TOTAL        ACCESS:    1687665 HIT:     418204 MISS:    1269461 MSHR_MERGE:        290
cpu0->LLC LOAD         ACCESS:     396356 HIT:     110184 MISS:     286172 MSHR_MERGE:          2
cpu0->LLC RFO          ACCESS:      46780 HIT:       7398 MISS:      39382 MSHR_MERGE:          2
cpu0->LLC PREFETCH     ACCESS:     652193 HIT:     124502 MISS:     527691 MSHR_MERGE:        286
cpu0->LLC WRITE        ACCESS:     327446 HIT:     126522 MISS:     200924 MSHR_MERGE:          0
cpu0->LLC TRANSLATION  ACCESS:     264890 HIT:      49598 MISS:     215292 MSHR_MERGE:          0
cpu0->LLC PREFETCH REQUESTED:          0 ISSUED:          0 USEFUL:          0 USELESS:          0
cpu0->LLC AVERAGE MISS LATENCY: 125.1 cycles

DRAM Statistics

Channel 0 RQ ROW_BUFFER_HIT:       7062
  ROW_BUFFER_MISS:    1061042
  AVG DBUS CONGESTED CYCLE: 17.21
Channel 0 WQ ROW_BUFFER_HIT:      64473
  ROW_BUFFER_MISS:     163260
  FULL:          0
Channel 0 REFRESHES ISSUED:      11076
