[VMEM] WARNING: physical memory size is smaller than virtual memory size.
WARNING: option --warmup_instructions is deprecated. Use --warmup-instructions instead.
WARNING: option --simulation_instructions is deprecated. Use --simulation-instructions instead.

*** ChampSim Multicore Out-of-Order Simulator ***
Warmup Instructions: 20000000
Simulation Instructions: 50000000
Number of CPUs: 1
Page size: 8192

Off-chip DRAM Size: 64 GiB Channels: 4 Width: 64-bit Data Rate: 3205 MT/s
Heartbeat CPU 0 instructions: 10000000 cycles: 8241565 heartbeat IPC: 1.213 cumulative IPC: 1.213 (Simulation time: 00 hr 01 min 24 sec)
Heartbeat CPU 0 instructions: 20000000 cycles: 15269204 heartbeat IPC: 1.423 cumulative IPC: 1.31 (Simulation time: 00 hr 02 min 40 sec)
Warmup finished CPU 0 instructions: 20000000 cycles: 15269204 cumulative IPC: 1.31 (Simulation time: 00 hr 02 min 40 sec)
Warmup complete CPU 0 instructions: 20000000 cycles: 15269204 cumulative IPC: 1.31 (Simulation time: 00 hr 02 min 40 sec)
Heartbeat CPU 0 instructions: 30000002 cycles: 41179207 heartbeat IPC: 0.386 cumulative IPC: 0.386 (Simulation time: 00 hr 05 min 24 sec)
Heartbeat CPU 0 instructions: 40000004 cycles: 67090913 heartbeat IPC: 0.3859 cumulative IPC: 0.3859 (Simulation time: 00 hr 08 min 03 sec)
Heartbeat CPU 0 instructions: 50000004 cycles: 92947643 heartbeat IPC: 0.3867 cumulative IPC: 0.3862 (Simulation time: 00 hr 10 min 45 sec)
Heartbeat CPU 0 instructions: 60000007 cycles: 117538701 heartbeat IPC: 0.4067 cumulative IPC: 0.3911 (Simulation time: 00 hr 13 min 22 sec)
Simulation finished CPU 0 instructions: 50000001 cycles: 126199920 cumulative IPC: 0.3962 (Simulation time: 00 hr 15 min 53 sec)
Simulation complete CPU 0 instructions: 50000001 cycles: 126199920 cumulative IPC: 0.3962 (Simulation time: 00 hr 15 min 53 sec)

ChampSim completed all CPUs

=== Simulation ===
CPU 0 runs traces/620.omnetpp_s-874B.champsimtrace.xz

Region of Interest Statistics

CPU 0 cumulative IPC: 0.3962 instructions: 50000001 cycles: 126199920
CPU 0 Branch Prediction Accuracy: 96.16% MPKI: 7.99 Average ROB Occupancy at Mispredict: 58.63
Branch type MPKI
BRANCH_DIRECT_JUMP: 0.9384
BRANCH_INDIRECT: 0.1208
BRANCH_CONDITIONAL: 5.805
BRANCH_DIRECT_CALL: 0.00236
BRANCH_INDIRECT_CALL: 0.7298
BRANCH_RETURN: 0.3936

cpu0->cpu0_STLB TOTAL        ACCESS:     827973 HIT:     690879 MISS:     137094 MSHR_MERGE:          0
cpu0->cpu0_STLB LOAD         ACCESS:     827973 HIT:     690879 MISS:     137094 MSHR_MERGE:          0
cpu0->cpu0_STLB RFO          ACCESS:          0 HIT:          0 MISS:          0 MSHR_MERGE:          0
cpu0->cpu0_STLB PREFETCH     ACCESS:          0 HIT:          0 MISS:          0 MSHR_MERGE:          0
cpu0->cpu0_STLB WRITE        ACCESS:          0 HIT:          0 MISS:          0 MSHR_MERGE:          0
cpu0->cpu0_STLB TRANSLATION  ACCESS:          0 HIT:          0 MISS:          0 MSHR_MERGE:          0
cpu0->cpu0_STLB PREFETCH REQUESTED:          0 ISSUED:          0 USEFUL:          0 USELESS:          0
cpu0->cpu0_STLB AVERAGE MISS LATENCY: 300.6 cycles
cpu0->cpu0_L2C TOTAL        ACCESS:    3540066 HIT:    1555528 MISS:    1984538 MSHR_MERGE:     218494
cpu0->cpu0_L2C LOAD         ACCESS:     933728 HIT:     380576 MISS:     553152 MSHR_MERGE:      25452
cpu0->cpu0_L2C RFO          ACCESS:     139250 HIT:      68577 MISS:      70673 MSHR_MERGE:       3110
cpu0->cpu0_L2C PREFETCH     ACCESS:    1664270 HIT:     584908 MISS:    1079362 MSHR_MERGE:     189932
cpu0->cpu0_L2C WRITE        ACCESS:     509361 HIT:     505520 MISS:       3841 MSHR_MERGE:          0
cpu0->cpu0_L2C TRANSLATION  ACCESS:     293457 HIT:      15947 MISS:     277510 MSHR_MERGE:          0
cpu0->cpu0_L2C PREFETCH REQUESTED:    1665975 ISSUED:    1664270 USEFUL:     219390 USELESS:     668175
cpu0->cpu0_L2C AVERAGE MISS LATENCY: 118.2 cycles
cpu0->cpu0_L1I TOTAL        ACCESS:    7868913 HIT:    7843543 MISS:      25370 MSHR_MERGE:       6916
cpu0->cpu0_L1I LOAD         ACCESS:    7868913 HIT:    7843543 MISS:      25370 MSHR_MERGE:       6916
cpu0->cpu0_L1I RFO          ACCESS:          0 HIT:          0 MISS:          0 MSHR_MERGE:          0
cpu0->cpu0_L1I PREFETCH     ACCESS:          0 HIT:          0 MISS:          0 MSHR_MERGE:          0
cpu0->cpu0_L1I WRITE        ACCESS:          0 HIT:          0 MISS:          0 MSHR_MERGE:          0
cpu0->cpu0_L1I TRANSLATION  ACCESS:          0 HIT:          0 MISS:          0 MSHR_MERGE:          0
cpu0->cpu0_L1I PREFETCH REQUESTED:          0 ISSUED:          0 USEFUL:          0 USELESS:          0
cpu0->cpu0_L1I AVERAGE MISS LATENCY: 24.46 cycles
cpu0->cpu0_L1D TOTAL        ACCESS:   18756009 HIT:   17041814 MISS:    1714195 MSHR_MERGE:     366206
cpu0->cpu0_L1D LOAD         ACCESS:    9420805 HIT:    8324357 MISS:    1096448 MSHR_MERGE:     181172
cpu0->cpu0_L1D RFO          ACCESS:          0 HIT:          0 MISS:          0 MSHR_MERGE:          0
cpu0->cpu0_L1D PREFETCH     ACCESS:          0 HIT:          0 MISS:          0 MSHR_MERGE:          0
cpu0->cpu0_L1D WRITE        ACCESS:    9033942 HIT:    8709960 MISS:     323982 MSHR_MERGE:     184726
cpu0->cpu0_L1D TRANSLATION  ACCESS:     301262 HIT:       7497 MISS:     293765 MSHR_MERGE:        308
cpu0->cpu0_L1D PREFETCH REQUESTED:          0 ISSUED:          0 USEFUL:          0 USELESS:          0
cpu0->cpu0_L1D AVERAGE MISS LATENCY: 87.81 cycles
cpu0->cpu0_ITLB TOTAL        ACCESS:    7205305 HIT:    7205101 MISS:        204 MSHR_MERGE:        100
cpu0->cpu0_ITLB LOAD         ACCESS:    7205305 HIT:    7205101 MISS:        204 MSHR_MERGE:        100
cpu0->cpu0_ITLB RFO          ACCESS:          0 HIT:          0 MISS:          0 MSHR_MERGE:          0
cpu0->cpu0_ITLB PREFETCH     ACCESS:          0 HIT:          0 MISS:          0 MSHR_MERGE:          0
cpu0->cpu0_ITLB WRITE        ACCESS:          0 HIT:          0 MISS:          0 MSHR_MERGE:          0
cpu0->cpu0_ITLB TRANSLATION  ACCESS:          0 HIT:          0 MISS:          0 MSHR_MERGE:          0
cpu0->cpu0_ITLB PREFETCH REQUESTED:          0 ISSUED:          0 USEFUL:          0 USELESS:          0
cpu0->cpu0_ITLB AVERAGE MISS LATENCY: 181.8 cycles
cpu0->cpu0_DTLB TOTAL        ACCESS:   17184880 HIT:   16239323 MISS:     945557 MSHR_MERGE:     117687
cpu0->cpu0_DTLB LOAD         ACCESS:   17184880 HIT:   16239323 MISS:     945557 MSHR_MERGE:     117687
cpu0->cpu0_DTLB RFO          ACCESS:          0 HIT:          0 MISS:          0 MSHR_MERGE:          0
cpu0->cpu0_DTLB PREFETCH     ACCESS:          0 HIT:          0 MISS:          0 MSHR_MERGE:          0
cpu0->cpu0_DTLB WRITE        ACCESS:          0 HIT:          0 MISS:          0 MSHR_MERGE:          0
cpu0->cpu0_DTLB TRANSLATION  ACCESS:          0 HIT:          0 MISS:          0 MSHR_MERGE:          0
cpu0->cpu0_DTLB PREFETCH REQUESTED:          0 ISSUED:          0 USEFUL:          0 USELESS:          0
cpu0->cpu0_DTLB AVERAGE MISS LATENCY: 53.93 cycles
cpu0->LLC TOTAL        ACCESS:    2167268 HIT:     506397 MISS:    1660871 MSHR_MERGE:        335
cpu0->LLC LOAD         ACCESS:     527700 HIT:     125603 MISS:     402097 MSHR_MERGE:          0
cpu0->LLC RFO          ACCESS:      67563 HIT:       9935 MISS:      57628 MSHR_MERGE:          1
cpu0->LLC PREFETCH     ACCESS:     889429 HIT:     171448 MISS:     717981 MSHR_MERGE:        334
cpu0->LLC WRITE        ACCESS:     405066 HIT:     146601 MISS:     258465 MSHR_MERGE:          0
cpu0->LLC TRANSLATION  ACCESS:     277510 HIT:      52810 MISS:     224700 MSHR_MERGE:          0
cpu0->LLC PREFETCH REQUESTED:          0 ISSUED:          0 USEFUL:          0 USELESS:          0
cpu0->LLC AVERAGE MISS LATENCY: 97.42 cycles

DRAM Statistics

Channel 0 RQ ROW_BUFFER_HIT:         89
  ROW_BUFFER_MISS:     348560
  AVG DBUS CONGESTED CYCLE: 23.48
Channel 0 WQ ROW_BUFFER_HIT:      11510
  ROW_BUFFER_MISS:      61628
  FULL:          0
Channel 0 REFRESHES ISSUED:      10517

Channel 1 RQ ROW_BUFFER_HIT:         79
  ROW_BUFFER_MISS:     349679
  AVG DBUS CONGESTED CYCLE: 23.46
Channel 1 WQ ROW_BUFFER_HIT:      11567
  ROW_BUFFER_MISS:      61815
  FULL:          0
Channel 1 REFRESHES ISSUED:      10517

Channel 2 RQ ROW_BUFFER_HIT:         99
  ROW_BUFFER_MISS:     351483
  AVG DBUS CONGESTED CYCLE: 23.46
Channel 2 WQ ROW_BUFFER_HIT:      11473
  ROW_BUFFER_MISS:      61890
  FULL:          0
Channel 2 REFRESHES ISSUED:      10517

Channel 3 RQ ROW_BUFFER_HIT:        103
  ROW_BUFFER_MISS:     351955
  AVG DBUS CONGESTED CYCLE: 23.5
Channel 3 WQ ROW_BUFFER_HIT:      11610
  ROW_BUFFER_MISS:      62123
  FULL:          0
Channel 3 REFRESHES ISSUED:      10517
