[VMEM] WARNING: physical memory size is smaller than virtual memory size.
WARNING: option --warmup_instructions is deprecated. Use --warmup-instructions instead.
WARNING: option --simulation_instructions is deprecated. Use --simulation-instructions instead.

*** ChampSim Multicore Out-of-Order Simulator ***
Warmup Instructions: 20000000
Simulation Instructions: 50000000
Number of CPUs: 1
Page size: 8192

Off-chip DRAM Size: 64 GiB Channels: 4 Width: 64-bit Data Rate: 3205 MT/s
Heartbeat CPU 0 instructions: 10000001 cycles: 4633779 heartbeat IPC: 2.158 cumulative IPC: 2.158 (Simulation time: 00 hr 01 min 01 sec)
Heartbeat CPU 0 instructions: 20000002 cycles: 9213791 heartbeat IPC: 2.183 cumulative IPC: 2.171 (Simulation time: 00 hr 02 min 00 sec)
Warmup finished CPU 0 instructions: 20000002 cycles: 9213791 cumulative IPC: 2.171 (Simulation time: 00 hr 02 min 00 sec)
Warmup complete CPU 0 instructions: 20000002 cycles: 9213791 cumulative IPC: 2.171 (Simulation time: 00 hr 02 min 00 sec)
Heartbeat CPU 0 instructions: 30000005 cycles: 37292965 heartbeat IPC: 0.3561 cumulative IPC: 0.3561 (Simulation time: 00 hr 04 min 30 sec)
Heartbeat CPU 0 instructions: 40000005 cycles: 65279598 heartbeat IPC: 0.3573 cumulative IPC: 0.3567 (Simulation time: 00 hr 06 min 58 sec)
Heartbeat CPU 0 instructions: 50000007 cycles: 93693202 heartbeat IPC: 0.3519 cumulative IPC: 0.3551 (Simulation time: 00 hr 09 min 33 sec)
Heartbeat CPU 0 instructions: 60000007 cycles: 122084770 heartbeat IPC: 0.3522 cumulative IPC: 0.3544 (Simulation time: 00 hr 12 min 04 sec)
Simulation finished CPU 0 instructions: 50000002 cycles: 141681646 cumulative IPC: 0.3529 (Simulation time: 00 hr 14 min 38 sec)
Simulation complete CPU 0 instructions: 50000002 cycles: 141681646 cumulative IPC: 0.3529 (Simulation time: 00 hr 14 min 38 sec)

ChampSim completed all CPUs

=== Simulation ===
CPU 0 runs traces/605.mcf_s-1152B.champsimtrace.xz

Region of Interest Statistics

CPU 0 cumulative IPC: 0.3529 instructions: 50000002 cycles: 141681646
CPU 0 Branch Prediction Accuracy: 90.19% MPKI: 24.48 Average ROB Occupancy at Mispredict: 21.4
Branch type MPKI
BRANCH_DIRECT_JUMP: 0.2057
BRANCH_INDIRECT: 0
BRANCH_CONDITIONAL: 24.27
BRANCH_DIRECT_CALL: 0
BRANCH_INDIRECT_CALL: 0.0036
BRANCH_RETURN: 2e-05

cpu0->cpu0_STLB TOTAL        ACCESS:    1006159 HIT:    1000402 MISS:       5757 MSHR_MERGE:          0
cpu0->cpu0_STLB LOAD         ACCESS:    1006159 HIT:    1000402 MISS:       5757 MSHR_MERGE:          0
cpu0->cpu0_STLB RFO          ACCESS:          0 HIT:          0 MISS:          0 MSHR_MERGE:          0
cpu0->cpu0_STLB PREFETCH     ACCESS:          0 HIT:          0 MISS:          0 MSHR_MERGE:          0
cpu0->cpu0_STLB WRITE        ACCESS:          0 HIT:          0 MISS:          0 MSHR_MERGE:          0
cpu0->cpu0_STLB TRANSLATION  ACCESS:          0 HIT:          0 MISS:          0 MSHR_MERGE:          0
cpu0->cpu0_STLB PREFETCH REQUESTED:          0 ISSUED:          0 USEFUL:          0 USELESS:          0
cpu0->cpu0_STLB AVERAGE MISS LATENCY: 610.3 cycles
cpu0->cpu0_L2C TOTAL        ACCESS:    9124217 HIT:    3102609 MISS:    6021608 MSHR_MERGE:     253067
cpu0->cpu0_L2C LOAD         ACCESS:    2552726 HIT:    1089582 MISS:    1463144 MSHR_MERGE:      28606
cpu0->cpu0_L2C RFO          ACCESS:     187386 HIT:      25755 MISS:     161631 MSHR_MERGE:          1
cpu0->cpu0_L2C PREFETCH     ACCESS:    6110017 HIT:    1721629 MISS:    4388388 MSHR_MERGE:     224460
cpu0->cpu0_L2C WRITE        ACCESS:     265740 HIT:     264202 MISS:       1538 MSHR_MERGE:          0
cpu0->cpu0_L2C TRANSLATION  ACCESS:       8348 HIT:       1441 MISS:       6907 MSHR_MERGE:          0
cpu0->cpu0_L2C PREFETCH REQUESTED:    6458679 ISSUED:    6110017 USEFUL:     803975 USELESS:    3117616
cpu0->cpu0_L2C AVERAGE MISS LATENCY: 51.43 cycles
cpu0->cpu0_L1I TOTAL        ACCESS:     435743 HIT:     435743 MISS:          0 MSHR_MERGE:          0
cpu0->cpu0_L1I LOAD         ACCESS:     435743 HIT:     435743 MISS:          0 MSHR_MERGE:          0
cpu0->cpu0_L1I RFO          ACCESS:          0 HIT:          0 MISS:          0 MSHR_MERGE:          0
cpu0->cpu0_L1I PREFETCH     ACCESS:          0 HIT:          0 MISS:          0 MSHR_MERGE:          0
cpu0->cpu0_L1I WRITE        ACCESS:          0 HIT:          0 MISS:          0 MSHR_MERGE:          0
cpu0->cpu0_L1I TRANSLATION  ACCESS:          0 HIT:          0 MISS:          0 MSHR_MERGE:          0
cpu0->cpu0_L1I PREFETCH REQUESTED:          0 ISSUED:          0 USEFUL:          0 USELESS:          0
cpu0->cpu0_L1I AVERAGE MISS LATENCY: - cycles
cpu0->cpu0_L1D TOTAL        ACCESS:   17981348 HIT:   14378113 MISS:    3603235 MSHR_MERGE:     854770
cpu0->cpu0_L1D LOAD         ACCESS:   12805348 HIT:    9726007 MISS:    3079341 MSHR_MERGE:     526614
cpu0->cpu0_L1D RFO          ACCESS:          0 HIT:          0 MISS:          0 MSHR_MERGE:          0
cpu0->cpu0_L1D PREFETCH     ACCESS:          0 HIT:          0 MISS:          0 MSHR_MERGE:          0
cpu0->cpu0_L1D WRITE        ACCESS:    5164390 HIT:    4648844 MISS:     515546 MSHR_MERGE:     328156
cpu0->cpu0_L1D TRANSLATION  ACCESS:      11610 HIT:       3262 MISS:       8348 MSHR_MERGE:          0
cpu0->cpu0_L1D PREFETCH REQUESTED:          0 ISSUED:          0 USEFUL:          0 USELESS:          0
cpu0->cpu0_L1D AVERAGE MISS LATENCY: 39.54 cycles
cpu0->cpu0_ITLB TOTAL        ACCESS:     403927 HIT:     403927 MISS:          0 MSHR_MERGE:          0
cpu0->cpu0_ITLB LOAD         ACCESS:     403927 HIT:     403927 MISS:          0 MSHR_MERGE:          0
cpu0->cpu0_ITLB RFO          ACCESS:          0 HIT:          0 MISS:          0 MSHR_MERGE:          0
cpu0->cpu0_ITLB PREFETCH     ACCESS:          0 HIT:          0 MISS:          0 MSHR_MERGE:          0
cpu0->cpu0_ITLB WRITE        ACCESS:          0 HIT:          0 MISS:          0 MSHR_MERGE:          0
cpu0->cpu0_ITLB TRANSLATION  ACCESS:          0 HIT:          0 MISS:          0 MSHR_MERGE:          0
cpu0->cpu0_ITLB PREFETCH REQUESTED:          0 ISSUED:          0 USEFUL:          0 USELESS:          0
cpu0->cpu0_ITLB AVERAGE MISS LATENCY: - cycles
cpu0->cpu0_DTLB TOTAL        ACCESS:   16840388 HIT:   15646005 MISS:    1194383 MSHR_MERGE:     188224
cpu0->cpu0_DTLB LOAD         ACCESS:   16840388 HIT:   15646005 MISS:    1194383 MSHR_MERGE:     188224
cpu0->cpu0_DTLB RFO          ACCESS:          0 HIT:          0 MISS:          0 MSHR_MERGE:          0
cpu0->cpu0_DTLB PREFETCH     ACCESS:          0 HIT:          0 MISS:          0 MSHR_MERGE:          0
cpu0->cpu0_DTLB WRITE        ACCESS:          0 HIT:          0 MISS:          0 MSHR_MERGE:          0
cpu0->cpu0_DTLB TRANSLATION  ACCESS:          0 HIT:          0 MISS:          0 MSHR_MERGE:          0
cpu0->cpu0_DTLB PREFETCH REQUESTED:          0 ISSUED:          0 USEFUL:          0 USELESS:          0
cpu0->cpu0_DTLB AVERAGE MISS LATENCY: 7.498 cycles
cpu0->LLC TOTAL        ACCESS:    5987137 HIT:    3610523 MISS:    2376614 MSHR_MERGE:      41750
cpu0->LLC LOAD         ACCESS:    1434538 HIT:    1035008 MISS:     399530 MSHR_MERGE:        165
cpu0->LLC RFO          ACCESS:     161630 HIT:     145940 MISS:      15690 MSHR_MERGE:          0
cpu0->LLC PREFETCH     ACCESS:    4163927 HIT:    2225967 MISS:    1937960 MSHR_MERGE:      41585
cpu0->LLC WRITE        ACCESS:     220135 HIT:     203563 MISS:      16572 MSHR_MERGE:          0
cpu0->LLC TRANSLATION  ACCESS:       6907 HIT:         45 MISS:       6862 MSHR_MERGE:          0
cpu0->LLC PREFETCH REQUESTED:          0 ISSUED:          0 USEFUL:          0 USELESS:          0
cpu0->LLC AVERAGE MISS LATENCY: 127.6 cycles

DRAM Statistics

Channel 0 RQ ROW_BUFFER_HIT:         29
  ROW_BUFFER_MISS:     579774
  AVG DBUS CONGESTED CYCLE: 13.43
Channel 0 WQ ROW_BUFFER_HIT:       1062
  ROW_BUFFER_MISS:       5432
  FULL:          0
Channel 0 REFRESHES ISSUED:      11807

Channel 1 RQ ROW_BUFFER_HIT:         27
  ROW_BUFFER_MISS:     576285
  AVG DBUS CONGESTED CYCLE: 13.83
Channel 1 WQ ROW_BUFFER_HIT:       1091
  ROW_BUFFER_MISS:       5488
  FULL:          0
Channel 1 REFRESHES ISSUED:      11807

Channel 2 RQ ROW_BUFFER_HIT:         32
  ROW_BUFFER_MISS:     578331
  AVG DBUS CONGESTED CYCLE: 13.63
Channel 2 WQ ROW_BUFFER_HIT:       1074
  ROW_BUFFER_MISS:       5652
  FULL:          0
Channel 2 REFRESHES ISSUED:      11807

Channel 3 RQ ROW_BUFFER_HIT:         28
  ROW_BUFFER_MISS:     583768
  AVG DBUS CONGESTED CYCLE: 14.2
Channel 3 WQ ROW_BUFFER_HIT:       1279
  ROW_BUFFER_MISS:       6193
  FULL:          0
Channel 3 REFRESHES ISSUED:      11807
