[VMEM] WARNING: physical memory size is smaller than virtual memory size.
WARNING: option --warmup_instructions is deprecated. Use --warmup-instructions instead.
WARNING: option --simulation_instructions is deprecated. Use --simulation-instructions instead.

*** ChampSim Multicore Out-of-Order Simulator ***
Warmup Instructions: 20000000
Simulation Instructions: 50000000
Number of CPUs: 1
Page size: 8192

Off-chip DRAM Size: 64 GiB Channels: 4 Width: 64-bit Data Rate: 3205 MT/s
Heartbeat CPU 0 instructions: 10000003 cycles: 8236568 heartbeat IPC: 1.214 cumulative IPC: 1.214 (Simulation time: 00 hr 01 min 25 sec)
Warmup finished CPU 0 instructions: 20000000 cycles: 15262499 cumulative IPC: 1.31 (Simulation time: 00 hr 02 min 41 sec)
Warmup complete CPU 0 instructions: 20000000 cycles: 15262499 cumulative IPC: 1.31 (Simulation time: 00 hr 02 min 41 sec)
Heartbeat CPU 0 instructions: 20000004 cycles: 15262500 heartbeat IPC: 1.423 cumulative IPC: 4 (Simulation time: 00 hr 02 min 41 sec)
Heartbeat CPU 0 instructions: 30000006 cycles: 41557655 heartbeat IPC: 0.3803 cumulative IPC: 0.3803 (Simulation time: 00 hr 05 min 35 sec)
Heartbeat CPU 0 instructions: 40000008 cycles: 68000285 heartbeat IPC: 0.3782 cumulative IPC: 0.3792 (Simulation time: 00 hr 08 min 32 sec)
Heartbeat CPU 0 instructions: 50000008 cycles: 94213932 heartbeat IPC: 0.3815 cumulative IPC: 0.38 (Simulation time: 00 hr 11 min 24 sec)
Heartbeat CPU 0 instructions: 60000011 cycles: 119040983 heartbeat IPC: 0.4028 cumulative IPC: 0.3854 (Simulation time: 00 hr 14 min 10 sec)
Simulation finished CPU 0 instructions: 50000001 cycles: 127926082 cumulative IPC: 0.3909 (Simulation time: 00 hr 16 min 54 sec)
Simulation complete CPU 0 instructions: 50000001 cycles: 127926082 cumulative IPC: 0.3909 (Simulation time: 00 hr 16 min 54 sec)

ChampSim completed all CPUs

=== Simulation ===
CPU 0 runs traces/620.omnetpp_s-874B.champsimtrace.xz

Region of Interest Statistics

CPU 0 cumulative IPC: 0.3909 instructions: 50000001 cycles: 127926082
CPU 0 Branch Prediction Accuracy: 96.16% MPKI: 7.99 Average ROB Occupancy at Mispredict: 59.19
Branch type MPKI
BRANCH_DIRECT_JUMP: 0.9384
BRANCH_INDIRECT: 0.1208
BRANCH_CONDITIONAL: 5.805
BRANCH_DIRECT_CALL: 0.00236
BRANCH_INDIRECT_CALL: 0.7298
BRANCH_RETURN: 0.3936

cpu0->cpu0_STLB TOTAL        ACCESS:     828561 HIT:     691463 MISS:     137098 MSHR_MERGE:          0
cpu0->cpu0_STLB LOAD         ACCESS:     828561 HIT:     691463 MISS:     137098 MSHR_MERGE:          0
cpu0->cpu0_STLB RFO          ACCESS:          0 HIT:          0 MISS:          0 MSHR_MERGE:          0
cpu0->cpu0_STLB PREFETCH     ACCESS:          0 HIT:          0 MISS:          0 MSHR_MERGE:          0
cpu0->cpu0_STLB WRITE        ACCESS:          0 HIT:          0 MISS:          0 MSHR_MERGE:          0
cpu0->cpu0_STLB TRANSLATION  ACCESS:          0 HIT:          0 MISS:          0 MSHR_MERGE:          0
cpu0->cpu0_STLB PREFETCH REQUESTED:          0 ISSUED:          0 USEFUL:          0 USELESS:          0
cpu0->cpu0_STLB AVERAGE MISS LATENCY: 282.7 cycles
cpu0->cpu0_L2C TOTAL        ACCESS:    1973686 HIT:     879406 MISS:    1094280 MSHR_MERGE:       2503
cpu0->cpu0_L2C LOAD         ACCESS:     933860 HIT:     287719 MISS:     646141 MSHR_MERGE:         41
cpu0->cpu0_L2C RFO          ACCESS:     139167 HIT:      32043 MISS:     107124 MSHR_MERGE:          1
cpu0->cpu0_L2C PREFETCH     ACCESS:     100578 HIT:      32057 MISS:      68521 MSHR_MERGE:       2461
cpu0->cpu0_L2C WRITE        ACCESS:     506818 HIT:     504507 MISS:       2311 MSHR_MERGE:          0
cpu0->cpu0_L2C TRANSLATION  ACCESS:     293263 HIT:      23080 MISS:     270183 MSHR_MERGE:          0
cpu0->cpu0_L2C PREFETCH REQUESTED:     100578 ISSUED:     100578 USEFUL:      14690 USELESS:      51289
cpu0->cpu0_L2C AVERAGE MISS LATENCY: 116.6 cycles
cpu0->cpu0_L1I TOTAL        ACCESS:    7925936 HIT:    7900771 MISS:      25165 MSHR_MERGE:       6678
cpu0->cpu0_L1I LOAD         ACCESS:    7925936 HIT:    7900771 MISS:      25165 MSHR_MERGE:       6678
cpu0->cpu0_L1I RFO          ACCESS:          0 HIT:          0 MISS:          0 MSHR_MERGE:          0
cpu0->cpu0_L1I PREFETCH     ACCESS:          0 HIT:          0 MISS:          0 MSHR_MERGE:          0
cpu0->cpu0_L1I WRITE        ACCESS:          0 HIT:          0 MISS:          0 MSHR_MERGE:          0
cpu0->cpu0_L1I TRANSLATION  ACCESS:          0 HIT:          0 MISS:          0 MSHR_MERGE:          0
cpu0->cpu0_L1I PREFETCH REQUESTED:          0 ISSUED:          0 USEFUL:          0 USELESS:          0
cpu0->cpu0_L1I AVERAGE MISS LATENCY: 26.29 cycles
cpu0->cpu0_L1D TOTAL        ACCESS:   18753083 HIT:   16943993 MISS:    1809090 MSHR_MERGE:     461279
cpu0->cpu0_L1D LOAD         ACCESS:    9418775 HIT:    8290166 MISS:    1128609 MSHR_MERGE:     213234
cpu0->cpu0_L1D RFO          ACCESS:          0 HIT:          0 MISS:          0 MSHR_MERGE:          0
cpu0->cpu0_L1D PREFETCH     ACCESS:          0 HIT:          0 MISS:          0 MSHR_MERGE:          0
cpu0->cpu0_L1D WRITE        ACCESS:    9033036 HIT:    8646109 MISS:     386927 MSHR_MERGE:     247754
cpu0->cpu0_L1D TRANSLATION  ACCESS:     301272 HIT:       7718 MISS:     293554 MSHR_MERGE:        291
cpu0->cpu0_L1D PREFETCH REQUESTED:          0 ISSUED:          0 USEFUL:          0 USELESS:          0
cpu0->cpu0_L1D AVERAGE MISS LATENCY: 97.21 cycles
cpu0->cpu0_ITLB TOTAL        ACCESS:    7269505 HIT:    7269300 MISS:        205 MSHR_MERGE:        101
cpu0->cpu0_ITLB LOAD         ACCESS:    7269505 HIT:    7269300 MISS:        205 MSHR_MERGE:        101
cpu0->cpu0_ITLB RFO          ACCESS:          0 HIT:          0 MISS:          0 MSHR_MERGE:          0
cpu0->cpu0_ITLB PREFETCH     ACCESS:          0 HIT:          0 MISS:          0 MSHR_MERGE:          0
cpu0->cpu0_ITLB WRITE        ACCESS:          0 HIT:          0 MISS:          0 MSHR_MERGE:          0
cpu0->cpu0_ITLB TRANSLATION  ACCESS:          0 HIT:          0 MISS:          0 MSHR_MERGE:          0
cpu0->cpu0_ITLB PREFETCH REQUESTED:          0 ISSUED:          0 USEFUL:          0 USELESS:          0
cpu0->cpu0_ITLB AVERAGE MISS LATENCY: 182.9 cycles
cpu0->cpu0_DTLB TOTAL        ACCESS:   17194598 HIT:   16242401 MISS:     952197 MSHR_MERGE:     123739
cpu0->cpu0_DTLB LOAD         ACCESS:   17194598 HIT:   16242401 MISS:     952197 MSHR_MERGE:     123739
cpu0->cpu0_DTLB RFO          ACCESS:          0 HIT:          0 MISS:          0 MSHR_MERGE:          0
cpu0->cpu0_DTLB PREFETCH     ACCESS:          0 HIT:          0 MISS:          0 MSHR_MERGE:          0
cpu0->cpu0_DTLB WRITE        ACCESS:          0 HIT:          0 MISS:          0 MSHR_MERGE:          0
cpu0->cpu0_DTLB TRANSLATION  ACCESS:          0 HIT:          0 MISS:          0 MSHR_MERGE:          0
cpu0->cpu0_DTLB PREFETCH REQUESTED:          0 ISSUED:          0 USEFUL:          0 USELESS:          0
cpu0->cpu0_DTLB AVERAGE MISS LATENCY: 50.93 cycles
cpu0->LLC TOTAL        ACCESS:    1471909 HIT:     341336 MISS:    1130573 MSHR_MERGE:          0
cpu0->LLC LOAD         ACCESS:     646100 HIT:     132167 MISS:     513933 MSHR_MERGE:          0
cpu0->LLC RFO          ACCESS:     107123 HIT:      23448 MISS:      83675 MSHR_MERGE:          0
cpu0->LLC PREFETCH     ACCESS:      66060 HIT:       2170 MISS:      63890 MSHR_MERGE:          0
cpu0->LLC WRITE        ACCESS:     382443 HIT:     127537 MISS:     254906 MSHR_MERGE:          0
cpu0->LLC TRANSLATION  ACCESS:     270183 HIT:      56014 MISS:     214169 MSHR_MERGE:          0
cpu0->LLC PREFETCH REQUESTED:          0 ISSUED:          0 USEFUL:          0 USELESS:          0
cpu0->LLC AVERAGE MISS LATENCY: 98.09 cycles

DRAM Statistics

Channel 0 RQ ROW_BUFFER_HIT:         79
  ROW_BUFFER_MISS:     219912
  AVG DBUS CONGESTED CYCLE: 23.23
Channel 0 WQ ROW_BUFFER_HIT:       9126
  ROW_BUFFER_MISS:      60995
  FULL:          0
Channel 0 REFRESHES ISSUED:      10661

Channel 1 RQ ROW_BUFFER_HIT:         79
  ROW_BUFFER_MISS:     218340
  AVG DBUS CONGESTED CYCLE: 23.2
Channel 1 WQ ROW_BUFFER_HIT:       9068
  ROW_BUFFER_MISS:      60603
  FULL:          0
Channel 1 REFRESHES ISSUED:      10661

Channel 2 RQ ROW_BUFFER_HIT:         74
  ROW_BUFFER_MISS:     218120
  AVG DBUS CONGESTED CYCLE: 23.18
Channel 2 WQ ROW_BUFFER_HIT:       9000
  ROW_BUFFER_MISS:      60980
  FULL:          0
Channel 2 REFRESHES ISSUED:      10661

Channel 3 RQ ROW_BUFFER_HIT:         88
  ROW_BUFFER_MISS:     218971
  AVG DBUS CONGESTED CYCLE: 23.23
Channel 3 WQ ROW_BUFFER_HIT:       9217
  ROW_BUFFER_MISS:      61020
  FULL:          0
Channel 3 REFRESHES ISSUED:      10661
