[VMEM] WARNING: physical memory size is smaller than virtual memory size.
WARNING: option --warmup_instructions is deprecated. Use --warmup-instructions instead.
WARNING: option --simulation_instructions is deprecated. Use --simulation-instructions instead.

*** ChampSim Multicore Out-of-Order Simulator ***
Warmup Instructions: 20000000
Simulation Instructions: 50000000
Number of CPUs: 1
Page size: 8192

Off-chip DRAM Size: 32 GiB Channels: 2 Width: 64-bit Data Rate: 3205 MT/s
Heartbeat CPU 0 instructions: 10000000 cycles: 4303180 heartbeat IPC: 2.324 cumulative IPC: 2.324 (Simulation time: 00 hr 01 min 51 sec)
Heartbeat CPU 0 instructions: 20000000 cycles: 8598236 heartbeat IPC: 2.328 cumulative IPC: 2.326 (Simulation time: 00 hr 03 min 47 sec)
Warmup finished CPU 0 instructions: 20000000 cycles: 8598236 cumulative IPC: 2.326 (Simulation time: 00 hr 03 min 47 sec)
Warmup complete CPU 0 instructions: 20000000 cycles: 8598236 cumulative IPC: 2.326 (Simulation time: 00 hr 03 min 47 sec)
Heartbeat CPU 0 instructions: 30000003 cycles: 16869777 heartbeat IPC: 1.209 cumulative IPC: 1.209 (Simulation time: 00 hr 06 min 44 sec)
Heartbeat CPU 0 instructions: 40000003 cycles: 25136463 heartbeat IPC: 1.21 cumulative IPC: 1.209 (Simulation time: 00 hr 09 min 44 sec)
Heartbeat CPU 0 instructions: 50000003 cycles: 33372201 heartbeat IPC: 1.214 cumulative IPC: 1.211 (Simulation time: 00 hr 12 min 45 sec)
Heartbeat CPU 0 instructions: 60000005 cycles: 41613628 heartbeat IPC: 1.213 cumulative IPC: 1.212 (Simulation time: 00 hr 15 min 50 sec)
Simulation finished CPU 0 instructions: 50000000 cycles: 41282894 cumulative IPC: 1.211 (Simulation time: 00 hr 18 min 55 sec)
Simulation complete CPU 0 instructions: 50000000 cycles: 41282894 cumulative IPC: 1.211 (Simulation time: 00 hr 18 min 55 sec)

ChampSim completed all CPUs

=== Simulation ===
CPU 0 runs traces/A2/603.bwaves_s-1740B.champsimtrace.xz

Region of Interest Statistics

CPU 0 cumulative IPC: 1.211 instructions: 50000000 cycles: 41282894
CPU 0 Branch Prediction Accuracy: 99.97% MPKI: 0.00734 Average ROB Occupancy at Mispredict: 190
Branch type MPKI
BRANCH_DIRECT_JUMP: 0
BRANCH_INDIRECT: 0
BRANCH_CONDITIONAL: 0.00734
BRANCH_DIRECT_CALL: 0
BRANCH_INDIRECT_CALL: 0
BRANCH_RETURN: 0

cpu0->cpu0_STLB TOTAL        ACCESS:       7425 HIT:        365 MISS:       7060 MSHR_MERGE:          0
cpu0->cpu0_STLB LOAD         ACCESS:       7425 HIT:        365 MISS:       7060 MSHR_MERGE:          0
cpu0->cpu0_STLB RFO          ACCESS:          0 HIT:          0 MISS:          0 MSHR_MERGE:          0
cpu0->cpu0_STLB PREFETCH     ACCESS:          0 HIT:          0 MISS:          0 MSHR_MERGE:          0
cpu0->cpu0_STLB WRITE        ACCESS:          0 HIT:          0 MISS:          0 MSHR_MERGE:          0
cpu0->cpu0_STLB TRANSLATION  ACCESS:          0 HIT:          0 MISS:          0 MSHR_MERGE:          0
cpu0->cpu0_STLB PREFETCH REQUESTED:          0 ISSUED:          0 USEFUL:          0 USELESS:          0
cpu0->cpu0_STLB AVERAGE MISS LATENCY: 678 cycles
cpu0->cpu0_L2C TOTAL        ACCESS:    3709341 HIT:    1833866 MISS:    1875475 MSHR_MERGE:     349773
cpu0->cpu0_L2C LOAD         ACCESS:    1020546 HIT:     832495 MISS:     188051 MSHR_MERGE:      61361
cpu0->cpu0_L2C RFO          ACCESS:      32927 HIT:       8565 MISS:      24362 MSHR_MERGE:          0
cpu0->cpu0_L2C PREFETCH     ACCESS:    2605764 HIT:     953438 MISS:    1652326 MSHR_MERGE:     288412
cpu0->cpu0_L2C WRITE        ACCESS:      36547 HIT:      36266 MISS:        281 MSHR_MERGE:          0
cpu0->cpu0_L2C TRANSLATION  ACCESS:      13557 HIT:       3102 MISS:      10455 MSHR_MERGE:          0
cpu0->cpu0_L2C PREFETCH REQUESTED:    2614687 ISSUED:    2605759 USEFUL:     805919 USELESS:          0
cpu0->cpu0_L2C AVERAGE MISS LATENCY: 81.98 cycles
cpu0->cpu0_L1I TOTAL        ACCESS:   11948131 HIT:   11948131 MISS:          0 MSHR_MERGE:          0
cpu0->cpu0_L1I LOAD         ACCESS:   11948131 HIT:   11948131 MISS:          0 MSHR_MERGE:          0
cpu0->cpu0_L1I RFO          ACCESS:          0 HIT:          0 MISS:          0 MSHR_MERGE:          0
cpu0->cpu0_L1I PREFETCH     ACCESS:          0 HIT:          0 MISS:          0 MSHR_MERGE:          0
cpu0->cpu0_L1I WRITE        ACCESS:          0 HIT:          0 MISS:          0 MSHR_MERGE:          0
cpu0->cpu0_L1I TRANSLATION  ACCESS:          0 HIT:          0 MISS:          0 MSHR_MERGE:          0
cpu0->cpu0_L1I PREFETCH REQUESTED:          0 ISSUED:          0 USEFUL:          0 USELESS:          0
cpu0->cpu0_L1I AVERAGE MISS LATENCY: - cycles
cpu0->cpu0_L1D TOTAL        ACCESS:   17107375 HIT:   15989234 MISS:    1118141 MSHR_MERGE:      50973
cpu0->cpu0_L1D LOAD         ACCESS:   14276627 HIT:   13225456 MISS:    1051171 MSHR_MERGE:      30569
cpu0->cpu0_L1D RFO          ACCESS:          0 HIT:          0 MISS:          0 MSHR_MERGE:          0
cpu0->cpu0_L1D PREFETCH     ACCESS:          0 HIT:          0 MISS:          0 MSHR_MERGE:          0
cpu0->cpu0_L1D WRITE        ACCESS:    2816699 HIT:    2763498 MISS:      53201 MSHR_MERGE:      20192
cpu0->cpu0_L1D TRANSLATION  ACCESS:      14049 HIT:        280 MISS:      13769 MSHR_MERGE:        212
cpu0->cpu0_L1D PREFETCH REQUESTED:          0 ISSUED:          0 USEFUL:          0 USELESS:          0
cpu0->cpu0_L1D AVERAGE MISS LATENCY: 25.56 cycles
cpu0->cpu0_ITLB TOTAL        ACCESS:   10807982 HIT:   10807982 MISS:          0 MSHR_MERGE:          0
cpu0->cpu0_ITLB LOAD         ACCESS:   10807982 HIT:   10807982 MISS:          0 MSHR_MERGE:          0
cpu0->cpu0_ITLB RFO          ACCESS:          0 HIT:          0 MISS:          0 MSHR_MERGE:          0
cpu0->cpu0_ITLB PREFETCH     ACCESS:          0 HIT:          0 MISS:          0 MSHR_MERGE:          0
cpu0->cpu0_ITLB WRITE        ACCESS:          0 HIT:          0 MISS:          0 MSHR_MERGE:          0
cpu0->cpu0_ITLB TRANSLATION  ACCESS:          0 HIT:          0 MISS:          0 MSHR_MERGE:          0
cpu0->cpu0_ITLB PREFETCH REQUESTED:          0 ISSUED:          0 USEFUL:          0 USELESS:          0
cpu0->cpu0_ITLB AVERAGE MISS LATENCY: - cycles
cpu0->cpu0_DTLB TOTAL        ACCESS:   16447997 HIT:   16435257 MISS:      12740 MSHR_MERGE:       5315
cpu0->cpu0_DTLB LOAD         ACCESS:   16447997 HIT:   16435257 MISS:      12740 MSHR_MERGE:       5315
cpu0->cpu0_DTLB RFO          ACCESS:          0 HIT:          0 MISS:          0 MSHR_MERGE:          0
cpu0->cpu0_DTLB PREFETCH     ACCESS:          0 HIT:          0 MISS:          0 MSHR_MERGE:          0
cpu0->cpu0_DTLB WRITE        ACCESS:          0 HIT:          0 MISS:          0 MSHR_MERGE:          0
cpu0->cpu0_DTLB TRANSLATION  ACCESS:          0 HIT:          0 MISS:          0 MSHR_MERGE:          0
cpu0->cpu0_DTLB PREFETCH REQUESTED:          0 ISSUED:          0 USEFUL:          0 USELESS:          0
cpu0->cpu0_DTLB AVERAGE MISS LATENCY: 649.6 cycles
cpu0->LLC TOTAL        ACCESS:    1550135 HIT:     445249 MISS:    1104886 MSHR_MERGE:      89846
cpu0->LLC LOAD         ACCESS:     126690 HIT:      89373 MISS:      37317 MSHR_MERGE:       5474
cpu0->LLC RFO          ACCESS:      24362 HIT:          0 MISS:      24362 MSHR_MERGE:          0
cpu0->LLC PREFETCH     ACCESS:    1363914 HIT:     353188 MISS:    1010726 MSHR_MERGE:      84372
cpu0->LLC WRITE        ACCESS:      24714 HIT:       2685 MISS:      22029 MSHR_MERGE:          0
cpu0->LLC TRANSLATION  ACCESS:      10455 HIT:          3 MISS:      10452 MSHR_MERGE:          0
cpu0->LLC PREFETCH REQUESTED:          0 ISSUED:          0 USEFUL:          0 USELESS:          0
cpu0->LLC AVERAGE MISS LATENCY: 113.3 cycles

DRAM Statistics

Channel 0 RQ ROW_BUFFER_HIT:      10991
  ROW_BUFFER_MISS:     485639
  AVG DBUS CONGESTED CYCLE: 5.708
Channel 0 WQ ROW_BUFFER_HIT:        987
  ROW_BUFFER_MISS:      11682
  FULL:          0
Channel 0 REFRESHES ISSUED:       3440

Channel 1 RQ ROW_BUFFER_HIT:      10947
  ROW_BUFFER_MISS:     485433
  AVG DBUS CONGESTED CYCLE: 5.776
Channel 1 WQ ROW_BUFFER_HIT:       1040
  ROW_BUFFER_MISS:      11694
  FULL:          0
Channel 1 REFRESHES ISSUED:       3440
