[VMEM] WARNING: physical memory size is smaller than virtual memory size.
WARNING: option --warmup_instructions is deprecated. Use --warmup-instructions instead.
WARNING: option --simulation_instructions is deprecated. Use --simulation-instructions instead.

*** ChampSim Multicore Out-of-Order Simulator ***
Warmup Instructions: 20000000
Simulation Instructions: 50000000
Number of CPUs: 1
Page size: 8192

Off-chip DRAM Size: 32 GiB Channels: 2 Width: 64-bit Data Rate: 3205 MT/s
Heartbeat CPU 0 instructions: 10000001 cycles: 4633276 heartbeat IPC: 2.158 cumulative IPC: 2.158 (Simulation time: 00 hr 02 min 10 sec)
Heartbeat CPU 0 instructions: 20000002 cycles: 9213030 heartbeat IPC: 2.184 cumulative IPC: 2.171 (Simulation time: 00 hr 04 min 13 sec)
Warmup finished CPU 0 instructions: 20000002 cycles: 9213030 cumulative IPC: 2.171 (Simulation time: 00 hr 04 min 13 sec)
Warmup complete CPU 0 instructions: 20000002 cycles: 9213030 cumulative IPC: 2.171 (Simulation time: 00 hr 04 min 13 sec)
Heartbeat CPU 0 instructions: 30000005 cycles: 36883496 heartbeat IPC: 0.3614 cumulative IPC: 0.3614 (Simulation time: 00 hr 10 min 08 sec)
Heartbeat CPU 0 instructions: 40000005 cycles: 64406590 heartbeat IPC: 0.3633 cumulative IPC: 0.3624 (Simulation time: 00 hr 15 min 54 sec)
Heartbeat CPU 0 instructions: 50000007 cycles: 92168218 heartbeat IPC: 0.3602 cumulative IPC: 0.3616 (Simulation time: 00 hr 21 min 43 sec)
Heartbeat CPU 0 instructions: 60000007 cycles: 119575940 heartbeat IPC: 0.3649 cumulative IPC: 0.3624 (Simulation time: 00 hr 27 min 21 sec)
Simulation finished CPU 0 instructions: 50000002 cycles: 138172723 cumulative IPC: 0.3619 (Simulation time: 00 hr 33 min 01 sec)
Simulation complete CPU 0 instructions: 50000002 cycles: 138172723 cumulative IPC: 0.3619 (Simulation time: 00 hr 33 min 01 sec)

ChampSim completed all CPUs

=== Simulation ===
CPU 0 runs traces/A2/605.mcf_s-1152B.champsimtrace.xz

Region of Interest Statistics

CPU 0 cumulative IPC: 0.3619 instructions: 50000002 cycles: 138172723
CPU 0 Branch Prediction Accuracy: 90.19% MPKI: 24.48 Average ROB Occupancy at Mispredict: 21.32
Branch type MPKI
BRANCH_DIRECT_JUMP: 0.2057
BRANCH_INDIRECT: 0
BRANCH_CONDITIONAL: 24.27
BRANCH_DIRECT_CALL: 0
BRANCH_INDIRECT_CALL: 0.0036
BRANCH_RETURN: 2e-05

cpu0->cpu0_STLB TOTAL        ACCESS:    1006199 HIT:    1000442 MISS:       5757 MSHR_MERGE:          0
cpu0->cpu0_STLB LOAD         ACCESS:    1006199 HIT:    1000442 MISS:       5757 MSHR_MERGE:          0
cpu0->cpu0_STLB RFO          ACCESS:          0 HIT:          0 MISS:          0 MSHR_MERGE:          0
cpu0->cpu0_STLB PREFETCH     ACCESS:          0 HIT:          0 MISS:          0 MSHR_MERGE:          0
cpu0->cpu0_STLB WRITE        ACCESS:          0 HIT:          0 MISS:          0 MSHR_MERGE:          0
cpu0->cpu0_STLB TRANSLATION  ACCESS:          0 HIT:          0 MISS:          0 MSHR_MERGE:          0
cpu0->cpu0_STLB PREFETCH REQUESTED:          0 ISSUED:          0 USEFUL:          0 USELESS:          0
cpu0->cpu0_STLB AVERAGE MISS LATENCY: 605.5 cycles
cpu0->cpu0_L2C TOTAL        ACCESS:    4978069 HIT:    2305824 MISS:    2672245 MSHR_MERGE:     400292
cpu0->cpu0_L2C LOAD         ACCESS:    2552735 HIT:    1023124 MISS:    1529611 MSHR_MERGE:      74948
cpu0->cpu0_L2C RFO          ACCESS:     187387 HIT:      61620 MISS:     125767 MSHR_MERGE:          0
cpu0->cpu0_L2C PREFETCH     ACCESS:    1963805 HIT:     954055 MISS:    1009750 MSHR_MERGE:     325344
cpu0->cpu0_L2C WRITE        ACCESS:     265793 HIT:     265473 MISS:        320 MSHR_MERGE:          0
cpu0->cpu0_L2C TRANSLATION  ACCESS:       8349 HIT:       1552 MISS:       6797 MSHR_MERGE:          0
cpu0->cpu0_L2C PREFETCH REQUESTED:    1963805 ISSUED:    1963805 USEFUL:     678325 USELESS:       2452
cpu0->cpu0_L2C AVERAGE MISS LATENCY: 47.95 cycles
cpu0->cpu0_L1I TOTAL        ACCESS:     433984 HIT:     433984 MISS:          0 MSHR_MERGE:          0
cpu0->cpu0_L1I LOAD         ACCESS:     433984 HIT:     433984 MISS:          0 MSHR_MERGE:          0
cpu0->cpu0_L1I RFO          ACCESS:          0 HIT:          0 MISS:          0 MSHR_MERGE:          0
cpu0->cpu0_L1I PREFETCH     ACCESS:          0 HIT:          0 MISS:          0 MSHR_MERGE:          0
cpu0->cpu0_L1I WRITE        ACCESS:          0 HIT:          0 MISS:          0 MSHR_MERGE:          0
cpu0->cpu0_L1I TRANSLATION  ACCESS:          0 HIT:          0 MISS:          0 MSHR_MERGE:          0
cpu0->cpu0_L1I PREFETCH REQUESTED:          0 ISSUED:          0 USEFUL:          0 USELESS:          0
cpu0->cpu0_L1I AVERAGE MISS LATENCY: - cycles
cpu0->cpu0_L1D TOTAL        ACCESS:   17980530 HIT:   14410345 MISS:    3570185 MSHR_MERGE:     821711
cpu0->cpu0_L1D LOAD         ACCESS:   12804571 HIT:    9722015 MISS:    3082556 MSHR_MERGE:     529821
cpu0->cpu0_L1D RFO          ACCESS:          0 HIT:          0 MISS:          0 MSHR_MERGE:          0
cpu0->cpu0_L1D PREFETCH     ACCESS:          0 HIT:          0 MISS:          0 MSHR_MERGE:          0
cpu0->cpu0_L1D WRITE        ACCESS:    5164349 HIT:    4685069 MISS:     479280 MSHR_MERGE:     291890
cpu0->cpu0_L1D TRANSLATION  ACCESS:      11610 HIT:       3261 MISS:       8349 MSHR_MERGE:          0
cpu0->cpu0_L1D PREFETCH REQUESTED:          0 ISSUED:          0 USEFUL:          0 USELESS:          0
cpu0->cpu0_L1D AVERAGE MISS LATENCY: 37.61 cycles
cpu0->cpu0_ITLB TOTAL        ACCESS:     402149 HIT:     402149 MISS:          0 MSHR_MERGE:          0
cpu0->cpu0_ITLB LOAD         ACCESS:     402149 HIT:     402149 MISS:          0 MSHR_MERGE:          0
cpu0->cpu0_ITLB RFO          ACCESS:          0 HIT:          0 MISS:          0 MSHR_MERGE:          0
cpu0->cpu0_ITLB PREFETCH     ACCESS:          0 HIT:          0 MISS:          0 MSHR_MERGE:          0
cpu0->cpu0_ITLB WRITE        ACCESS:          0 HIT:          0 MISS:          0 MSHR_MERGE:          0
cpu0->cpu0_ITLB TRANSLATION  ACCESS:          0 HIT:          0 MISS:          0 MSHR_MERGE:          0
cpu0->cpu0_ITLB PREFETCH REQUESTED:          0 ISSUED:          0 USEFUL:          0 USELESS:          0
cpu0->cpu0_ITLB AVERAGE MISS LATENCY: - cycles
cpu0->cpu0_DTLB TOTAL        ACCESS:   16841020 HIT:   15648218 MISS:    1192802 MSHR_MERGE:     186603
cpu0->cpu0_DTLB LOAD         ACCESS:   16841020 HIT:   15648218 MISS:    1192802 MSHR_MERGE:     186603
cpu0->cpu0_DTLB RFO          ACCESS:          0 HIT:          0 MISS:          0 MSHR_MERGE:          0
cpu0->cpu0_DTLB PREFETCH     ACCESS:          0 HIT:          0 MISS:          0 MSHR_MERGE:          0
cpu0->cpu0_DTLB WRITE        ACCESS:          0 HIT:          0 MISS:          0 MSHR_MERGE:          0
cpu0->cpu0_DTLB TRANSLATION  ACCESS:          0 HIT:          0 MISS:          0 MSHR_MERGE:          0
cpu0->cpu0_DTLB PREFETCH REQUESTED:          0 ISSUED:          0 USEFUL:          0 USELESS:          0
cpu0->cpu0_DTLB AVERAGE MISS LATENCY: 7.47 cycles
cpu0->LLC TOTAL        ACCESS:    2470903 HIT:    1437752 MISS:    1033151 MSHR_MERGE:       1237
cpu0->LLC LOAD         ACCESS:    1454662 HIT:    1101468 MISS:     353194 MSHR_MERGE:        105
cpu0->LLC RFO          ACCESS:     125767 HIT:     123864 MISS:       1903 MSHR_MERGE:          0
cpu0->LLC PREFETCH     ACCESS:     684406 HIT:      17690 MISS:     666716 MSHR_MERGE:       1132
cpu0->LLC WRITE        ACCESS:     199271 HIT:     194723 MISS:       4548 MSHR_MERGE:          0
cpu0->LLC TRANSLATION  ACCESS:       6797 HIT:          7 MISS:       6790 MSHR_MERGE:          0
cpu0->LLC PREFETCH REQUESTED:          0 ISSUED:          0 USEFUL:          0 USELESS:          0
cpu0->LLC AVERAGE MISS LATENCY: 130.8 cycles

DRAM Statistics

Channel 0 RQ ROW_BUFFER_HIT:      55571
  ROW_BUFFER_MISS:     457748
  AVG DBUS CONGESTED CYCLE: 10.74
Channel 0 WQ ROW_BUFFER_HIT:        412
  ROW_BUFFER_MISS:       2860
  FULL:          0
Channel 0 REFRESHES ISSUED:      11515

Channel 1 RQ ROW_BUFFER_HIT:      55468
  ROW_BUFFER_MISS:     458578
  AVG DBUS CONGESTED CYCLE: 11.7
Channel 1 WQ ROW_BUFFER_HIT:        484
  ROW_BUFFER_MISS:       3426
  FULL:          0
Channel 1 REFRESHES ISSUED:      11515
