[VMEM] WARNING: physical memory size is smaller than virtual memory size.
WARNING: option --warmup_instructions is deprecated. Use --warmup-instructions instead.
WARNING: option --simulation_instructions is deprecated. Use --simulation-instructions instead.

*** ChampSim Multicore Out-of-Order Simulator ***
Warmup Instructions: 20000000
Simulation Instructions: 50000000
Number of CPUs: 1
Page size: 262144

Off-chip DRAM Size: 16 GiB Channels: 1 Width: 64-bit Data Rate: 3205 MT/s
Heartbeat CPU 0 instructions: 10000001 cycles: 5769485 heartbeat IPC: 1.733 cumulative IPC: 1.733 (Simulation time: 00 hr 01 min 00 sec)
Warmup finished CPU 0 instructions: 20000000 cycles: 11342554 cumulative IPC: 1.763 (Simulation time: 00 hr 01 min 58 sec)
Warmup complete CPU 0 instructions: 20000000 cycles: 11342554 cumulative IPC: 1.763 (Simulation time: 00 hr 01 min 58 sec)
Heartbeat CPU 0 instructions: 20000004 cycles: 11342555 heartbeat IPC: 1.794 cumulative IPC: 4 (Simulation time: 00 hr 01 min 58 sec)
Heartbeat CPU 0 instructions: 30000006 cycles: 31706707 heartbeat IPC: 0.4911 cumulative IPC: 0.4911 (Simulation time: 00 hr 03 min 56 sec)
Heartbeat CPU 0 instructions: 40000008 cycles: 52374568 heartbeat IPC: 0.4838 cumulative IPC: 0.4874 (Simulation time: 00 hr 05 min 51 sec)
Heartbeat CPU 0 instructions: 50000008 cycles: 72846212 heartbeat IPC: 0.4885 cumulative IPC: 0.4878 (Simulation time: 00 hr 07 min 46 sec)
Heartbeat CPU 0 instructions: 60000011 cycles: 92565093 heartbeat IPC: 0.5071 cumulative IPC: 0.4925 (Simulation time: 00 hr 09 min 37 sec)
Simulation finished CPU 0 instructions: 50000001 cycles: 100505893 cumulative IPC: 0.4975 (Simulation time: 00 hr 11 min 26 sec)
Simulation complete CPU 0 instructions: 50000001 cycles: 100505893 cumulative IPC: 0.4975 (Simulation time: 00 hr 11 min 26 sec)

ChampSim completed all CPUs

=== Simulation ===
CPU 0 runs traces/620.omnetpp_s-874B.champsimtrace.xz

Region of Interest Statistics

CPU 0 cumulative IPC: 0.4975 instructions: 50000001 cycles: 100505893
CPU 0 Branch Prediction Accuracy: 96.16% MPKI: 7.99 Average ROB Occupancy at Mispredict: 58.94
Branch type MPKI
BRANCH_DIRECT_JUMP: 0.9384
BRANCH_INDIRECT: 0.1208
BRANCH_CONDITIONAL: 5.805
BRANCH_DIRECT_CALL: 0.00236
BRANCH_INDIRECT_CALL: 0.7298
BRANCH_RETURN: 0.3936

cpu0->cpu0_STLB TOTAL        ACCESS:     271284 HIT:     271276 MISS:          8 MSHR_MERGE:          0
cpu0->cpu0_STLB LOAD         ACCESS:     271284 HIT:     271276 MISS:          8 MSHR_MERGE:          0
cpu0->cpu0_STLB RFO          ACCESS:          0 HIT:          0 MISS:          0 MSHR_MERGE:          0
cpu0->cpu0_STLB PREFETCH     ACCESS:          0 HIT:          0 MISS:          0 MSHR_MERGE:          0
cpu0->cpu0_STLB WRITE        ACCESS:          0 HIT:          0 MISS:          0 MSHR_MERGE:          0
cpu0->cpu0_STLB TRANSLATION  ACCESS:          0 HIT:          0 MISS:          0 MSHR_MERGE:          0
cpu0->cpu0_STLB PREFETCH REQUESTED:          0 ISSUED:          0 USEFUL:          0 USELESS:          0
cpu0->cpu0_STLB AVERAGE MISS LATENCY: 772.8 cycles
cpu0->cpu0_L2C TOTAL        ACCESS:    1513944 HIT:     787037 MISS:     726907 MSHR_MERGE:          0
cpu0->cpu0_L2C LOAD         ACCESS:     888846 HIT:     266196 MISS:     622650 MSHR_MERGE:          0
cpu0->cpu0_L2C RFO          ACCESS:     135730 HIT:      32838 MISS:     102892 MSHR_MERGE:          0
cpu0->cpu0_L2C PREFETCH     ACCESS:          0 HIT:          0 MISS:          0 MSHR_MERGE:          0
cpu0->cpu0_L2C WRITE        ACCESS:     489352 HIT:     488001 MISS:       1351 MSHR_MERGE:          0
cpu0->cpu0_L2C TRANSLATION  ACCESS:         16 HIT:          2 MISS:         14 MSHR_MERGE:          0
cpu0->cpu0_L2C PREFETCH REQUESTED:          0 ISSUED:          0 USEFUL:          0 USELESS:          0
cpu0->cpu0_L2C AVERAGE MISS LATENCY: 137 cycles
cpu0->cpu0_L1I TOTAL        ACCESS:    8086770 HIT:    8061176 MISS:      25594 MSHR_MERGE:       7050
cpu0->cpu0_L1I LOAD         ACCESS:    8086770 HIT:    8061176 MISS:      25594 MSHR_MERGE:       7050
cpu0->cpu0_L1I RFO          ACCESS:          0 HIT:          0 MISS:          0 MSHR_MERGE:          0
cpu0->cpu0_L1I PREFETCH     ACCESS:          0 HIT:          0 MISS:          0 MSHR_MERGE:          0
cpu0->cpu0_L1I WRITE        ACCESS:          0 HIT:          0 MISS:          0 MSHR_MERGE:          0
cpu0->cpu0_L1I TRANSLATION  ACCESS:          0 HIT:          0 MISS:          0 MSHR_MERGE:          0
cpu0->cpu0_L1I PREFETCH REQUESTED:          0 ISSUED:          0 USEFUL:          0 USELESS:          0
cpu0->cpu0_L1I AVERAGE MISS LATENCY: 25.88 cycles
cpu0->cpu0_L1D TOTAL        ACCESS:   18451546 HIT:   16998725 MISS:    1452821 MSHR_MERGE:     446764
cpu0->cpu0_L1D LOAD         ACCESS:    9417243 HIT:    8337449 MISS:    1079794 MSHR_MERGE:     209488
cpu0->cpu0_L1D RFO          ACCESS:          0 HIT:          0 MISS:          0 MSHR_MERGE:          0
cpu0->cpu0_L1D PREFETCH     ACCESS:          0 HIT:          0 MISS:          0 MSHR_MERGE:          0
cpu0->cpu0_L1D WRITE        ACCESS:    9034287 HIT:    8661276 MISS:     373011 MSHR_MERGE:     237276
cpu0->cpu0_L1D TRANSLATION  ACCESS:         16 HIT:          0 MISS:         16 MSHR_MERGE:          0
cpu0->cpu0_L1D PREFETCH REQUESTED:          0 ISSUED:          0 USEFUL:          0 USELESS:          0
cpu0->cpu0_L1D AVERAGE MISS LATENCY: 107.4 cycles
cpu0->cpu0_ITLB TOTAL        ACCESS:    7246166 HIT:    7246163 MISS:          3 MSHR_MERGE:          1
cpu0->cpu0_ITLB LOAD         ACCESS:    7246166 HIT:    7246163 MISS:          3 MSHR_MERGE:          1
cpu0->cpu0_ITLB RFO          ACCESS:          0 HIT:          0 MISS:          0 MSHR_MERGE:          0
cpu0->cpu0_ITLB PREFETCH     ACCESS:          0 HIT:          0 MISS:          0 MSHR_MERGE:          0
cpu0->cpu0_ITLB WRITE        ACCESS:          0 HIT:          0 MISS:          0 MSHR_MERGE:          0
cpu0->cpu0_ITLB TRANSLATION  ACCESS:          0 HIT:          0 MISS:          0 MSHR_MERGE:          0
cpu0->cpu0_ITLB PREFETCH REQUESTED:          0 ISSUED:          0 USEFUL:          0 USELESS:          0
cpu0->cpu0_ITLB AVERAGE MISS LATENCY: 595.5 cycles
cpu0->cpu0_DTLB TOTAL        ACCESS:   17126284 HIT:   16822873 MISS:     303411 MSHR_MERGE:      32129
cpu0->cpu0_DTLB LOAD         ACCESS:   17126284 HIT:   16822873 MISS:     303411 MSHR_MERGE:      32129
cpu0->cpu0_DTLB RFO          ACCESS:          0 HIT:          0 MISS:          0 MSHR_MERGE:          0
cpu0->cpu0_DTLB PREFETCH     ACCESS:          0 HIT:          0 MISS:          0 MSHR_MERGE:          0
cpu0->cpu0_DTLB WRITE        ACCESS:          0 HIT:          0 MISS:          0 MSHR_MERGE:          0
cpu0->cpu0_DTLB TRANSLATION  ACCESS:          0 HIT:          0 MISS:          0 MSHR_MERGE:          0
cpu0->cpu0_DTLB PREFETCH REQUESTED:          0 ISSUED:          0 USEFUL:          0 USELESS:          0
cpu0->cpu0_DTLB AVERAGE MISS LATENCY: 4.018 cycles
cpu0->LLC TOTAL        ACCESS:    1087949 HIT:     267456 MISS:     820493 MSHR_MERGE:          0
cpu0->LLC LOAD         ACCESS:     622650 HIT:     123424 MISS:     499226 MSHR_MERGE:          0
cpu0->LLC RFO          ACCESS:     102891 HIT:      24421 MISS:      78470 MSHR_MERGE:          0
cpu0->LLC PREFETCH     ACCESS:          0 HIT:          0 MISS:          0 MSHR_MERGE:          0
cpu0->LLC WRITE        ACCESS:     362394 HIT:     119611 MISS:     242783 MSHR_MERGE:          0
cpu0->LLC TRANSLATION  ACCESS:         14 HIT:          0 MISS:         14 MSHR_MERGE:          0
cpu0->LLC PREFETCH REQUESTED:          0 ISSUED:          0 USEFUL:          0 USELESS:          0
cpu0->LLC AVERAGE MISS LATENCY: 109.2 cycles

DRAM Statistics

Channel 0 RQ ROW_BUFFER_HIT:      37095
  ROW_BUFFER_MISS:     540579
  AVG DBUS CONGESTED CYCLE: 24.86
Channel 0 WQ ROW_BUFFER_HIT:      68925
  ROW_BUFFER_MISS:     193722
  FULL:          0
Channel 0 REFRESHES ISSUED:       8375
