[VMEM] WARNING: physical memory size is smaller than virtual memory size.
WARNING: option --warmup_instructions is deprecated. Use --warmup-instructions instead.
WARNING: option --simulation_instructions is deprecated. Use --simulation-instructions instead.

*** ChampSim Multicore Out-of-Order Simulator ***
Warmup Instructions: 20000000
Simulation Instructions: 50000000
Number of CPUs: 1
Page size: 262144

Off-chip DRAM Size: 16 GiB Channels: 1 Width: 64-bit Data Rate: 3205 MT/s
Heartbeat CPU 0 instructions: 10000000 cycles: 4211198 heartbeat IPC: 2.375 cumulative IPC: 2.375 (Simulation time: 00 hr 00 min 48 sec)
Heartbeat CPU 0 instructions: 20000000 cycles: 8419201 heartbeat IPC: 2.376 cumulative IPC: 2.376 (Simulation time: 00 hr 01 min 36 sec)
Warmup finished CPU 0 instructions: 20000000 cycles: 8419201 cumulative IPC: 2.376 (Simulation time: 00 hr 01 min 36 sec)
Warmup complete CPU 0 instructions: 20000000 cycles: 8419201 cumulative IPC: 2.376 (Simulation time: 00 hr 01 min 36 sec)
Heartbeat CPU 0 instructions: 30000002 cycles: 20687477 heartbeat IPC: 0.8151 cumulative IPC: 0.8151 (Simulation time: 00 hr 03 min 14 sec)
Heartbeat CPU 0 instructions: 40000002 cycles: 32992091 heartbeat IPC: 0.8127 cumulative IPC: 0.8139 (Simulation time: 00 hr 04 min 50 sec)
Heartbeat CPU 0 instructions: 50000003 cycles: 44951013 heartbeat IPC: 0.8362 cumulative IPC: 0.8212 (Simulation time: 00 hr 06 min 23 sec)
Heartbeat CPU 0 instructions: 60000005 cycles: 57310621 heartbeat IPC: 0.8091 cumulative IPC: 0.8181 (Simulation time: 00 hr 07 min 54 sec)
Simulation finished CPU 0 instructions: 50000001 cycles: 61132338 cumulative IPC: 0.8179 (Simulation time: 00 hr 09 min 22 sec)
Simulation complete CPU 0 instructions: 50000001 cycles: 61132338 cumulative IPC: 0.8179 (Simulation time: 00 hr 09 min 22 sec)

ChampSim completed all CPUs

=== Simulation ===
CPU 0 runs traces/603.bwaves_s-1740B.champsimtrace.xz

Region of Interest Statistics

CPU 0 cumulative IPC: 0.8179 instructions: 50000001 cycles: 61132338
CPU 0 Branch Prediction Accuracy: 99.97% MPKI: 0.00734 Average ROB Occupancy at Mispredict: 189.9
Branch type MPKI
BRANCH_DIRECT_JUMP: 0
BRANCH_INDIRECT: 0
BRANCH_CONDITIONAL: 0.00734
BRANCH_DIRECT_CALL: 0
BRANCH_INDIRECT_CALL: 0
BRANCH_RETURN: 0

cpu0->cpu0_STLB TOTAL        ACCESS:      10055 HIT:       9835 MISS:        220 MSHR_MERGE:          0
cpu0->cpu0_STLB LOAD         ACCESS:      10055 HIT:       9835 MISS:        220 MSHR_MERGE:          0
cpu0->cpu0_STLB RFO          ACCESS:          0 HIT:          0 MISS:          0 MSHR_MERGE:          0
cpu0->cpu0_STLB PREFETCH     ACCESS:          0 HIT:          0 MISS:          0 MSHR_MERGE:          0
cpu0->cpu0_STLB WRITE        ACCESS:          0 HIT:          0 MISS:          0 MSHR_MERGE:          0
cpu0->cpu0_STLB TRANSLATION  ACCESS:          0 HIT:          0 MISS:          0 MSHR_MERGE:          0
cpu0->cpu0_STLB PREFETCH REQUESTED:          0 ISSUED:          0 USEFUL:          0 USELESS:          0
cpu0->cpu0_STLB AVERAGE MISS LATENCY: 752.6 cycles
cpu0->cpu0_L2C TOTAL        ACCESS:    1090246 HIT:     131592 MISS:     958654 MSHR_MERGE:          0
cpu0->cpu0_L2C LOAD         ACCESS:    1018948 HIT:      85458 MISS:     933490 MSHR_MERGE:          0
cpu0->cpu0_L2C RFO          ACCESS:      33762 HIT:       9397 MISS:      24365 MSHR_MERGE:          0
cpu0->cpu0_L2C PREFETCH     ACCESS:          0 HIT:          0 MISS:          0 MSHR_MERGE:          0
cpu0->cpu0_L2C WRITE        ACCESS:      37096 HIT:      36737 MISS:        359 MSHR_MERGE:          0
cpu0->cpu0_L2C TRANSLATION  ACCESS:        440 HIT:          0 MISS:        440 MSHR_MERGE:          0
cpu0->cpu0_L2C PREFETCH REQUESTED:          0 ISSUED:          0 USEFUL:          0 USELESS:          0
cpu0->cpu0_L2C AVERAGE MISS LATENCY: 194.3 cycles
cpu0->cpu0_L1I TOTAL        ACCESS:   12197918 HIT:   12197918 MISS:          0 MSHR_MERGE:          0
cpu0->cpu0_L1I LOAD         ACCESS:   12197918 HIT:   12197918 MISS:          0 MSHR_MERGE:          0
cpu0->cpu0_L1I RFO          ACCESS:          0 HIT:          0 MISS:          0 MSHR_MERGE:          0
cpu0->cpu0_L1I PREFETCH     ACCESS:          0 HIT:          0 MISS:          0 MSHR_MERGE:          0
cpu0->cpu0_L1I WRITE        ACCESS:          0 HIT:          0 MISS:          0 MSHR_MERGE:          0
cpu0->cpu0_L1I TRANSLATION  ACCESS:          0 HIT:          0 MISS:          0 MSHR_MERGE:          0
cpu0->cpu0_L1I PREFETCH REQUESTED:          0 ISSUED:          0 USEFUL:          0 USELESS:          0
cpu0->cpu0_L1I AVERAGE MISS LATENCY: - cycles
cpu0->cpu0_L1D TOTAL        ACCESS:   17130137 HIT:   15783273 MISS:    1346864 MSHR_MERGE:     293662
cpu0->cpu0_L1D LOAD         ACCESS:   14312998 HIT:   13015249 MISS:    1297749 MSHR_MERGE:     278760
cpu0->cpu0_L1D RFO          ACCESS:          0 HIT:          0 MISS:          0 MSHR_MERGE:          0
cpu0->cpu0_L1D PREFETCH     ACCESS:          0 HIT:          0 MISS:          0 MSHR_MERGE:          0
cpu0->cpu0_L1D WRITE        ACCESS:    2816699 HIT:    2768024 MISS:      48675 MSHR_MERGE:      14902
cpu0->cpu0_L1D TRANSLATION  ACCESS:        440 HIT:          0 MISS:        440 MSHR_MERGE:          0
cpu0->cpu0_L1D PREFETCH REQUESTED:          0 ISSUED:          0 USEFUL:          0 USELESS:          0
cpu0->cpu0_L1D AVERAGE MISS LATENCY: 185.7 cycles
cpu0->cpu0_ITLB TOTAL        ACCESS:   11114633 HIT:   11114633 MISS:          0 MSHR_MERGE:          0
cpu0->cpu0_ITLB LOAD         ACCESS:   11114633 HIT:   11114633 MISS:          0 MSHR_MERGE:          0
cpu0->cpu0_ITLB RFO          ACCESS:          0 HIT:          0 MISS:          0 MSHR_MERGE:          0
cpu0->cpu0_ITLB PREFETCH     ACCESS:          0 HIT:          0 MISS:          0 MSHR_MERGE:          0
cpu0->cpu0_ITLB WRITE        ACCESS:          0 HIT:          0 MISS:          0 MSHR_MERGE:          0
cpu0->cpu0_ITLB TRANSLATION  ACCESS:          0 HIT:          0 MISS:          0 MSHR_MERGE:          0
cpu0->cpu0_ITLB PREFETCH REQUESTED:          0 ISSUED:          0 USEFUL:          0 USELESS:          0
cpu0->cpu0_ITLB AVERAGE MISS LATENCY: - cycles
cpu0->cpu0_DTLB TOTAL        ACCESS:   16450123 HIT:   16439819 MISS:      10304 MSHR_MERGE:        249
cpu0->cpu0_DTLB LOAD         ACCESS:   16450123 HIT:   16439819 MISS:      10304 MSHR_MERGE:        249
cpu0->cpu0_DTLB RFO          ACCESS:          0 HIT:          0 MISS:          0 MSHR_MERGE:          0
cpu0->cpu0_DTLB PREFETCH     ACCESS:          0 HIT:          0 MISS:          0 MSHR_MERGE:          0
cpu0->cpu0_DTLB WRITE        ACCESS:          0 HIT:          0 MISS:          0 MSHR_MERGE:          0
cpu0->cpu0_DTLB TRANSLATION  ACCESS:          0 HIT:          0 MISS:          0 MSHR_MERGE:          0
cpu0->cpu0_DTLB PREFETCH REQUESTED:          0 ISSUED:          0 USEFUL:          0 USELESS:          0
cpu0->cpu0_DTLB AVERAGE MISS LATENCY: 20.49 cycles
cpu0->LLC TOTAL        ACCESS:     983135 HIT:       1336 MISS:     981799 MSHR_MERGE:          0
cpu0->LLC LOAD         ACCESS:     933490 HIT:        972 MISS:     932518 MSHR_MERGE:          0
cpu0->LLC RFO          ACCESS:      24365 HIT:          3 MISS:      24362 MSHR_MERGE:          0
cpu0->LLC PREFETCH     ACCESS:          0 HIT:          0 MISS:          0 MSHR_MERGE:          0
cpu0->LLC WRITE        ACCESS:      24840 HIT:        361 MISS:      24479 MSHR_MERGE:          0
cpu0->LLC TRANSLATION  ACCESS:        440 HIT:          0 MISS:        440 MSHR_MERGE:          0
cpu0->LLC PREFETCH REQUESTED:          0 ISSUED:          0 USEFUL:          0 USELESS:          0
cpu0->LLC AVERAGE MISS LATENCY: 173.3 cycles

DRAM Statistics

Channel 0 RQ ROW_BUFFER_HIT:        659
  ROW_BUFFER_MISS:     956661
  AVG DBUS CONGESTED CYCLE: 5.931
Channel 0 WQ ROW_BUFFER_HIT:       4958
  ROW_BUFFER_MISS:      19515
  FULL:          0
Channel 0 REFRESHES ISSUED:       5094
