[VMEM] WARNING: physical memory size is smaller than virtual memory size.
WARNING: option --warmup_instructions is deprecated. Use --warmup-instructions instead.
WARNING: option --simulation_instructions is deprecated. Use --simulation-instructions instead.

*** ChampSim Multicore Out-of-Order Simulator ***
Warmup Instructions: 20000000
Simulation Instructions: 50000000
Number of CPUs: 1
Page size: 262144

Off-chip DRAM Size: 16 GiB Channels: 1 Width: 64-bit Data Rate: 3205 MT/s
Heartbeat CPU 0 instructions: 10000001 cycles: 4202358 heartbeat IPC: 2.38 cumulative IPC: 2.38 (Simulation time: 00 hr 00 min 49 sec)
Heartbeat CPU 0 instructions: 20000002 cycles: 8392257 heartbeat IPC: 2.387 cumulative IPC: 2.383 (Simulation time: 00 hr 01 min 38 sec)
Warmup finished CPU 0 instructions: 20000002 cycles: 8392257 cumulative IPC: 2.383 (Simulation time: 00 hr 01 min 38 sec)
Warmup complete CPU 0 instructions: 20000002 cycles: 8392257 cumulative IPC: 2.383 (Simulation time: 00 hr 01 min 38 sec)
Heartbeat CPU 0 instructions: 30000005 cycles: 52906810 heartbeat IPC: 0.2246 cumulative IPC: 0.2246 (Simulation time: 00 hr 05 min 09 sec)
Heartbeat CPU 0 instructions: 40000005 cycles: 98267865 heartbeat IPC: 0.2205 cumulative IPC: 0.2225 (Simulation time: 00 hr 08 min 30 sec)
Heartbeat CPU 0 instructions: 50000007 cycles: 145094998 heartbeat IPC: 0.2136 cumulative IPC: 0.2195 (Simulation time: 00 hr 11 min 58 sec)
Heartbeat CPU 0 instructions: 60000007 cycles: 192370809 heartbeat IPC: 0.2115 cumulative IPC: 0.2174 (Simulation time: 00 hr 15 min 22 sec)
Simulation finished CPU 0 instructions: 50000002 cycles: 232477962 cumulative IPC: 0.2151 (Simulation time: 00 hr 18 min 42 sec)
Simulation complete CPU 0 instructions: 50000002 cycles: 232477962 cumulative IPC: 0.2151 (Simulation time: 00 hr 18 min 42 sec)

ChampSim completed all CPUs

=== Simulation ===
CPU 0 runs traces/605.mcf_s-1152B.champsimtrace.xz

Region of Interest Statistics

CPU 0 cumulative IPC: 0.2151 instructions: 50000002 cycles: 232477962
CPU 0 Branch Prediction Accuracy: 90.19% MPKI: 24.48 Average ROB Occupancy at Mispredict: 20.96
Branch type MPKI
BRANCH_DIRECT_JUMP: 0.2057
BRANCH_INDIRECT: 0
BRANCH_CONDITIONAL: 24.27
BRANCH_DIRECT_CALL: 0
BRANCH_INDIRECT_CALL: 0.0036
BRANCH_RETURN: 2e-05

cpu0->cpu0_STLB TOTAL        ACCESS:       9893 HIT:       9569 MISS:        324 MSHR_MERGE:          0
cpu0->cpu0_STLB LOAD         ACCESS:       9893 HIT:       9569 MISS:        324 MSHR_MERGE:          0
cpu0->cpu0_STLB RFO          ACCESS:          0 HIT:          0 MISS:          0 MSHR_MERGE:          0
cpu0->cpu0_STLB PREFETCH     ACCESS:          0 HIT:          0 MISS:          0 MSHR_MERGE:          0
cpu0->cpu0_STLB WRITE        ACCESS:          0 HIT:          0 MISS:          0 MSHR_MERGE:          0
cpu0->cpu0_STLB TRANSLATION  ACCESS:          0 HIT:          0 MISS:          0 MSHR_MERGE:          0
cpu0->cpu0_STLB PREFETCH REQUESTED:          0 ISSUED:          0 USEFUL:          0 USELESS:          0
cpu0->cpu0_STLB AVERAGE MISS LATENCY: 739.6 cycles
cpu0->cpu0_L2C TOTAL        ACCESS:    3006391 HIT:     747338 MISS:    2259053 MSHR_MERGE:          0
cpu0->cpu0_L2C LOAD         ACCESS:    2552581 HIT:     420810 MISS:    2131771 MSHR_MERGE:          0
cpu0->cpu0_L2C RFO          ACCESS:     187386 HIT:      61076 MISS:     126310 MSHR_MERGE:          0
cpu0->cpu0_L2C PREFETCH     ACCESS:          0 HIT:          0 MISS:          0 MSHR_MERGE:          0
cpu0->cpu0_L2C WRITE        ACCESS:     265771 HIT:     265452 MISS:        319 MSHR_MERGE:          0
cpu0->cpu0_L2C TRANSLATION  ACCESS:        653 HIT:          0 MISS:        653 MSHR_MERGE:          0
cpu0->cpu0_L2C PREFETCH REQUESTED:          0 ISSUED:          0 USEFUL:          0 USELESS:          0
cpu0->cpu0_L2C AVERAGE MISS LATENCY: 94.85 cycles
cpu0->cpu0_L1I TOTAL        ACCESS:     445103 HIT:     445103 MISS:          0 MSHR_MERGE:          0
cpu0->cpu0_L1I LOAD         ACCESS:     445103 HIT:     445103 MISS:          0 MSHR_MERGE:          0
cpu0->cpu0_L1I RFO          ACCESS:          0 HIT:          0 MISS:          0 MSHR_MERGE:          0
cpu0->cpu0_L1I PREFETCH     ACCESS:          0 HIT:          0 MISS:          0 MSHR_MERGE:          0
cpu0->cpu0_L1I WRITE        ACCESS:          0 HIT:          0 MISS:          0 MSHR_MERGE:          0
cpu0->cpu0_L1I TRANSLATION  ACCESS:          0 HIT:          0 MISS:          0 MSHR_MERGE:          0
cpu0->cpu0_L1I PREFETCH REQUESTED:          0 ISSUED:          0 USEFUL:          0 USELESS:          0
cpu0->cpu0_L1I AVERAGE MISS LATENCY: - cycles
cpu0->cpu0_L1D TOTAL        ACCESS:   18213103 HIT:   14569598 MISS:    3643505 MSHR_MERGE:     902881
cpu0->cpu0_L1D LOAD         ACCESS:   13047512 HIT:    9879666 MISS:    3167846 MSHR_MERGE:     615264
cpu0->cpu0_L1D RFO          ACCESS:          0 HIT:          0 MISS:          0 MSHR_MERGE:          0
cpu0->cpu0_L1D PREFETCH     ACCESS:          0 HIT:          0 MISS:          0 MSHR_MERGE:          0
cpu0->cpu0_L1D WRITE        ACCESS:    5164938 HIT:    4689932 MISS:     475006 MSHR_MERGE:     287617
cpu0->cpu0_L1D TRANSLATION  ACCESS:        653 HIT:          0 MISS:        653 MSHR_MERGE:          0
cpu0->cpu0_L1D PREFETCH REQUESTED:          0 ISSUED:          0 USEFUL:          0 USELESS:          0
cpu0->cpu0_L1D AVERAGE MISS LATENCY: 87.01 cycles
cpu0->cpu0_ITLB TOTAL        ACCESS:     388205 HIT:     388205 MISS:          0 MSHR_MERGE:          0
cpu0->cpu0_ITLB LOAD         ACCESS:     388205 HIT:     388205 MISS:          0 MSHR_MERGE:          0
cpu0->cpu0_ITLB RFO          ACCESS:          0 HIT:          0 MISS:          0 MSHR_MERGE:          0
cpu0->cpu0_ITLB PREFETCH     ACCESS:          0 HIT:          0 MISS:          0 MSHR_MERGE:          0
cpu0->cpu0_ITLB WRITE        ACCESS:          0 HIT:          0 MISS:          0 MSHR_MERGE:          0
cpu0->cpu0_ITLB TRANSLATION  ACCESS:          0 HIT:          0 MISS:          0 MSHR_MERGE:          0
cpu0->cpu0_ITLB PREFETCH REQUESTED:          0 ISSUED:          0 USEFUL:          0 USELESS:          0
cpu0->cpu0_ITLB AVERAGE MISS LATENCY: - cycles
cpu0->cpu0_DTLB TOTAL        ACCESS:   16499807 HIT:   16487656 MISS:      12151 MSHR_MERGE:       2258
cpu0->cpu0_DTLB LOAD         ACCESS:   16499807 HIT:   16487656 MISS:      12151 MSHR_MERGE:       2258
cpu0->cpu0_DTLB RFO          ACCESS:          0 HIT:          0 MISS:          0 MSHR_MERGE:          0
cpu0->cpu0_DTLB PREFETCH     ACCESS:          0 HIT:          0 MISS:          0 MSHR_MERGE:          0
cpu0->cpu0_DTLB WRITE        ACCESS:          0 HIT:          0 MISS:          0 MSHR_MERGE:          0
cpu0->cpu0_DTLB TRANSLATION  ACCESS:          0 HIT:          0 MISS:          0 MSHR_MERGE:          0
cpu0->cpu0_DTLB PREFETCH REQUESTED:          0 ISSUED:          0 USEFUL:          0 USELESS:          0
cpu0->cpu0_DTLB AVERAGE MISS LATENCY: 28.25 cycles
cpu0->LLC TOTAL        ACCESS:    2458263 HIT:    1287114 MISS:    1171149 MSHR_MERGE:          0
cpu0->LLC LOAD         ACCESS:    2131770 HIT:     972965 MISS:    1158805 MSHR_MERGE:          0
cpu0->LLC RFO          ACCESS:     126310 HIT:     123350 MISS:       2960 MSHR_MERGE:          0
cpu0->LLC PREFETCH     ACCESS:          0 HIT:          0 MISS:          0 MSHR_MERGE:          0
cpu0->LLC WRITE        ACCESS:     199530 HIT:     190799 MISS:       8731 MSHR_MERGE:          0
cpu0->LLC TRANSLATION  ACCESS:        653 HIT:          0 MISS:        653 MSHR_MERGE:          0
cpu0->LLC PREFETCH REQUESTED:          0 ISSUED:          0 USEFUL:          0 USELESS:          0
cpu0->LLC AVERAGE MISS LATENCY: 151.2 cycles

DRAM Statistics

Channel 0 RQ ROW_BUFFER_HIT:      99035
  ROW_BUFFER_MISS:    1062507
  AVG DBUS CONGESTED CYCLE: 25.49
Channel 0 WQ ROW_BUFFER_HIT:       2260
  ROW_BUFFER_MISS:       8881
  FULL:          0
Channel 0 REFRESHES ISSUED:      19373
