[VMEM] WARNING: physical memory size is smaller than virtual memory size.
WARNING: option --warmup_instructions is deprecated. Use --warmup-instructions instead.
WARNING: option --simulation_instructions is deprecated. Use --simulation-instructions instead.

*** ChampSim Multicore Out-of-Order Simulator ***
Warmup Instructions: 20000000
Simulation Instructions: 50000000
Number of CPUs: 1
Page size: 8192

Off-chip DRAM Size: 16 GiB Channels: 1 Width: 64-bit Data Rate: 3205 MT/s
Heartbeat CPU 0 instructions: 10000000 cycles: 8237165 heartbeat IPC: 1.214 cumulative IPC: 1.214 (Simulation time: 00 hr 02 min 53 sec)
Heartbeat CPU 0 instructions: 20000000 cycles: 15263299 heartbeat IPC: 1.423 cumulative IPC: 1.31 (Simulation time: 00 hr 05 min 25 sec)
Warmup finished CPU 0 instructions: 20000000 cycles: 15263299 cumulative IPC: 1.31 (Simulation time: 00 hr 05 min 25 sec)
Warmup complete CPU 0 instructions: 20000000 cycles: 15263299 cumulative IPC: 1.31 (Simulation time: 00 hr 05 min 25 sec)
Heartbeat CPU 0 instructions: 30000002 cycles: 37058573 heartbeat IPC: 0.4588 cumulative IPC: 0.4588 (Simulation time: 00 hr 10 min 27 sec)
Heartbeat CPU 0 instructions: 40000004 cycles: 58929689 heartbeat IPC: 0.4572 cumulative IPC: 0.458 (Simulation time: 00 hr 15 min 26 sec)
Heartbeat CPU 0 instructions: 50000004 cycles: 80613738 heartbeat IPC: 0.4612 cumulative IPC: 0.4591 (Simulation time: 00 hr 20 min 26 sec)
Heartbeat CPU 0 instructions: 60000007 cycles: 101241072 heartbeat IPC: 0.4848 cumulative IPC: 0.4652 (Simulation time: 00 hr 25 min 17 sec)
Simulation finished CPU 0 instructions: 50000001 cycles: 106038770 cumulative IPC: 0.4715 (Simulation time: 00 hr 30 min 02 sec)
Simulation complete CPU 0 instructions: 50000001 cycles: 106038770 cumulative IPC: 0.4715 (Simulation time: 00 hr 30 min 02 sec)

ChampSim completed all CPUs

=== Simulation ===
CPU 0 runs traces/A2/620.omnetpp_s-874B.champsimtrace.xz

Region of Interest Statistics

CPU 0 cumulative IPC: 0.4715 instructions: 50000001 cycles: 106038770
CPU 0 Branch Prediction Accuracy: 96.16% MPKI: 7.99 Average ROB Occupancy at Mispredict: 58.93
Branch type MPKI
BRANCH_DIRECT_JUMP: 0.9384
BRANCH_INDIRECT: 0.1208
BRANCH_CONDITIONAL: 5.805
BRANCH_DIRECT_CALL: 0.00236
BRANCH_INDIRECT_CALL: 0.7298
BRANCH_RETURN: 0.3936

cpu0->cpu0_STLB TOTAL        ACCESS:     828733 HIT:     691635 MISS:     137098 MSHR_MERGE:          0
cpu0->cpu0_STLB LOAD         ACCESS:     828733 HIT:     691635 MISS:     137098 MSHR_MERGE:          0
cpu0->cpu0_STLB RFO          ACCESS:          0 HIT:          0 MISS:          0 MSHR_MERGE:          0
cpu0->cpu0_STLB PREFETCH     ACCESS:          0 HIT:          0 MISS:          0 MSHR_MERGE:          0
cpu0->cpu0_STLB WRITE        ACCESS:          0 HIT:          0 MISS:          0 MSHR_MERGE:          0
cpu0->cpu0_STLB TRANSLATION  ACCESS:          0 HIT:          0 MISS:          0 MSHR_MERGE:          0
cpu0->cpu0_STLB PREFETCH REQUESTED:          0 ISSUED:          0 USEFUL:          0 USELESS:          0
cpu0->cpu0_STLB AVERAGE MISS LATENCY: 214.5 cycles
cpu0->cpu0_L2C TOTAL        ACCESS:    1898413 HIT:     857765 MISS:    1040648 MSHR_MERGE:          5
cpu0->cpu0_L2C LOAD         ACCESS:     933881 HIT:     285670 MISS:     648211 MSHR_MERGE:          2
cpu0->cpu0_L2C RFO          ACCESS:     139158 HIT:      32560 MISS:     106598 MSHR_MERGE:          0
cpu0->cpu0_L2C PREFETCH     ACCESS:      25193 HIT:      12245 MISS:      12948 MSHR_MERGE:          3
cpu0->cpu0_L2C WRITE        ACCESS:     506884 HIT:     504676 MISS:       2208 MSHR_MERGE:          0
cpu0->cpu0_L2C TRANSLATION  ACCESS:     293297 HIT:      22614 MISS:     270683 MSHR_MERGE:          0
cpu0->cpu0_L2C PREFETCH REQUESTED:      25193 ISSUED:      25193 USEFUL:       7456 USELESS:       5408
cpu0->cpu0_L2C AVERAGE MISS LATENCY: 83.19 cycles
cpu0->cpu0_L1I TOTAL        ACCESS:    7909639 HIT:    7884420 MISS:      25219 MSHR_MERGE:       6730
cpu0->cpu0_L1I LOAD         ACCESS:    7909639 HIT:    7884420 MISS:      25219 MSHR_MERGE:       6730
cpu0->cpu0_L1I RFO          ACCESS:          0 HIT:          0 MISS:          0 MSHR_MERGE:          0
cpu0->cpu0_L1I PREFETCH     ACCESS:          0 HIT:          0 MISS:          0 MSHR_MERGE:          0
cpu0->cpu0_L1I WRITE        ACCESS:          0 HIT:          0 MISS:          0 MSHR_MERGE:          0
cpu0->cpu0_L1I TRANSLATION  ACCESS:          0 HIT:          0 MISS:          0 MSHR_MERGE:          0
cpu0->cpu0_L1I PREFETCH REQUESTED:          0 ISSUED:          0 USEFUL:          0 USELESS:          0
cpu0->cpu0_L1I AVERAGE MISS LATENCY: 22.48 cycles
cpu0->cpu0_L1D TOTAL        ACCESS:   18753535 HIT:   16947391 MISS:    1806144 MSHR_MERGE:     458286
cpu0->cpu0_L1D LOAD         ACCESS:    9416547 HIT:    8289849 MISS:    1126698 MSHR_MERGE:     211304
cpu0->cpu0_L1D RFO          ACCESS:          0 HIT:          0 MISS:          0 MSHR_MERGE:          0
cpu0->cpu0_L1D PREFETCH     ACCESS:          0 HIT:          0 MISS:          0 MSHR_MERGE:          0
cpu0->cpu0_L1D WRITE        ACCESS:    9035723 HIT:    8649869 MISS:     385854 MSHR_MERGE:     246687
cpu0->cpu0_L1D TRANSLATION  ACCESS:     301265 HIT:       7673 MISS:     293592 MSHR_MERGE:        295
cpu0->cpu0_L1D PREFETCH REQUESTED:          0 ISSUED:          0 USEFUL:          0 USELESS:          0
cpu0->cpu0_L1D AVERAGE MISS LATENCY: 71.99 cycles
cpu0->cpu0_ITLB TOTAL        ACCESS:    7250899 HIT:    7250694 MISS:        205 MSHR_MERGE:        101
cpu0->cpu0_ITLB LOAD         ACCESS:    7250899 HIT:    7250694 MISS:        205 MSHR_MERGE:        101
cpu0->cpu0_ITLB RFO          ACCESS:          0 HIT:          0 MISS:          0 MSHR_MERGE:          0
cpu0->cpu0_ITLB PREFETCH     ACCESS:          0 HIT:          0 MISS:          0 MSHR_MERGE:          0
cpu0->cpu0_ITLB WRITE        ACCESS:          0 HIT:          0 MISS:          0 MSHR_MERGE:          0
cpu0->cpu0_ITLB TRANSLATION  ACCESS:          0 HIT:          0 MISS:          0 MSHR_MERGE:          0
cpu0->cpu0_ITLB PREFETCH REQUESTED:          0 ISSUED:          0 USEFUL:          0 USELESS:          0
cpu0->cpu0_ITLB AVERAGE MISS LATENCY: 151.7 cycles
cpu0->cpu0_DTLB TOTAL        ACCESS:   17192496 HIT:   16242041 MISS:     950455 MSHR_MERGE:     121825
cpu0->cpu0_DTLB LOAD         ACCESS:   17192496 HIT:   16242041 MISS:     950455 MSHR_MERGE:     121825
cpu0->cpu0_DTLB RFO          ACCESS:          0 HIT:          0 MISS:          0 MSHR_MERGE:          0
cpu0->cpu0_DTLB PREFETCH     ACCESS:          0 HIT:          0 MISS:          0 MSHR_MERGE:          0
cpu0->cpu0_DTLB WRITE        ACCESS:          0 HIT:          0 MISS:          0 MSHR_MERGE:          0
cpu0->cpu0_DTLB TRANSLATION  ACCESS:          0 HIT:          0 MISS:          0 MSHR_MERGE:          0
cpu0->cpu0_DTLB PREFETCH REQUESTED:          0 ISSUED:          0 USEFUL:          0 USELESS:          0
cpu0->cpu0_DTLB AVERAGE MISS LATENCY: 39.63 cycles
cpu0->LLC TOTAL        ACCESS:    1418282 HIT:     338182 MISS:    1080100 MSHR_MERGE:          0
cpu0->LLC LOAD         ACCESS:     648209 HIT:     129792 MISS:     518417 MSHR_MERGE:          0
cpu0->LLC RFO          ACCESS:     106598 HIT:      23517 MISS:      83081 MSHR_MERGE:          0
cpu0->LLC PREFETCH     ACCESS:      12945 HIT:        995 MISS:      11950 MSHR_MERGE:          0
cpu0->LLC WRITE        ACCESS:     379847 HIT:     126269 MISS:     253578 MSHR_MERGE:          0
cpu0->LLC TRANSLATION  ACCESS:     270683 HIT:      57609 MISS:     213074 MSHR_MERGE:          0
cpu0->LLC PREFETCH REQUESTED:          0 ISSUED:          0 USEFUL:          0 USELESS:          0
cpu0->LLC AVERAGE MISS LATENCY: 66.04 cycles

DRAM Statistics

Channel 0 RQ ROW_BUFFER_HIT:      15363
  ROW_BUFFER_MISS:     811145
  AVG DBUS CONGESTED CYCLE: 11.96
Channel 0 WQ ROW_BUFFER_HIT:      41585
  ROW_BUFFER_MISS:     237352
  FULL:          0
Channel 0 REFRESHES ISSUED:       8837
