[VMEM] WARNING: physical memory size is smaller than virtual memory size.
WARNING: option --warmup_instructions is deprecated. Use --warmup-instructions instead.
WARNING: option --simulation_instructions is deprecated. Use --simulation-instructions instead.

*** ChampSim Multicore Out-of-Order Simulator ***
Warmup Instructions: 20000000
Simulation Instructions: 50000000
Number of CPUs: 1
Page size: 8192

Off-chip DRAM Size: 16 GiB Channels: 1 Width: 64-bit Data Rate: 3205 MT/s
Heartbeat CPU 0 instructions: 10000001 cycles: 4633710 heartbeat IPC: 2.158 cumulative IPC: 2.158 (Simulation time: 00 hr 01 min 55 sec)
Heartbeat CPU 0 instructions: 20000002 cycles: 9213902 heartbeat IPC: 2.183 cumulative IPC: 2.171 (Simulation time: 00 hr 03 min 51 sec)
Warmup finished CPU 0 instructions: 20000002 cycles: 9213902 cumulative IPC: 2.171 (Simulation time: 00 hr 03 min 51 sec)
Warmup complete CPU 0 instructions: 20000002 cycles: 9213902 cumulative IPC: 2.171 (Simulation time: 00 hr 03 min 51 sec)
Heartbeat CPU 0 instructions: 30000005 cycles: 34296909 heartbeat IPC: 0.3987 cumulative IPC: 0.3987 (Simulation time: 00 hr 08 min 49 sec)
Heartbeat CPU 0 instructions: 40000005 cycles: 59268013 heartbeat IPC: 0.4005 cumulative IPC: 0.3996 (Simulation time: 00 hr 13 min 43 sec)
Heartbeat CPU 0 instructions: 50000007 cycles: 84475022 heartbeat IPC: 0.3967 cumulative IPC: 0.3986 (Simulation time: 00 hr 18 min 39 sec)
Heartbeat CPU 0 instructions: 60000007 cycles: 109455323 heartbeat IPC: 0.4003 cumulative IPC: 0.399 (Simulation time: 00 hr 23 min 30 sec)
Simulation finished CPU 0 instructions: 50000002 cycles: 125577382 cumulative IPC: 0.3982 (Simulation time: 00 hr 28 min 30 sec)
Simulation complete CPU 0 instructions: 50000002 cycles: 125577382 cumulative IPC: 0.3982 (Simulation time: 00 hr 28 min 30 sec)

ChampSim completed all CPUs

=== Simulation ===
CPU 0 runs traces/A2/605.mcf_s-1152B.champsimtrace.xz

Region of Interest Statistics

CPU 0 cumulative IPC: 0.3982 instructions: 50000002 cycles: 125577382
CPU 0 Branch Prediction Accuracy: 90.19% MPKI: 24.48 Average ROB Occupancy at Mispredict: 21.32
Branch type MPKI
BRANCH_DIRECT_JUMP: 0.2057
BRANCH_INDIRECT: 0
BRANCH_CONDITIONAL: 24.27
BRANCH_DIRECT_CALL: 0
BRANCH_INDIRECT_CALL: 0.0036
BRANCH_RETURN: 2e-05

cpu0->cpu0_STLB TOTAL        ACCESS:    1006231 HIT:    1000474 MISS:       5757 MSHR_MERGE:          0
cpu0->cpu0_STLB LOAD         ACCESS:    1006231 HIT:    1000474 MISS:       5757 MSHR_MERGE:          0
cpu0->cpu0_STLB RFO          ACCESS:          0 HIT:          0 MISS:          0 MSHR_MERGE:          0
cpu0->cpu0_STLB PREFETCH     ACCESS:          0 HIT:          0 MISS:          0 MSHR_MERGE:          0
cpu0->cpu0_STLB WRITE        ACCESS:          0 HIT:          0 MISS:          0 MSHR_MERGE:          0
cpu0->cpu0_STLB TRANSLATION  ACCESS:          0 HIT:          0 MISS:          0 MSHR_MERGE:          0
cpu0->cpu0_STLB PREFETCH REQUESTED:          0 ISSUED:          0 USEFUL:          0 USELESS:          0
cpu0->cpu0_STLB AVERAGE MISS LATENCY: 539.1 cycles
cpu0->cpu0_L2C TOTAL        ACCESS:    4508862 HIT:    2076554 MISS:    2432308 MSHR_MERGE:     151719
cpu0->cpu0_L2C LOAD         ACCESS:    2552743 HIT:     983594 MISS:    1569149 MSHR_MERGE:      28873
cpu0->cpu0_L2C RFO          ACCESS:     187390 HIT:      53231 MISS:     134159 MSHR_MERGE:          0
cpu0->cpu0_L2C PREFETCH     ACCESS:    1494594 HIT:     772717 MISS:     721877 MSHR_MERGE:     122846
cpu0->cpu0_L2C WRITE        ACCESS:     265786 HIT:     265468 MISS:        318 MSHR_MERGE:          0
cpu0->cpu0_L2C TRANSLATION  ACCESS:       8349 HIT:       1544 MISS:       6805 MSHR_MERGE:          0
cpu0->cpu0_L2C PREFETCH REQUESTED:    1494594 ISSUED:    1494594 USEFUL:     594496 USELESS:       1994
cpu0->cpu0_L2C AVERAGE MISS LATENCY: 37.18 cycles
cpu0->cpu0_L1I TOTAL        ACCESS:     434965 HIT:     434965 MISS:          0 MSHR_MERGE:          0
cpu0->cpu0_L1I LOAD         ACCESS:     434965 HIT:     434965 MISS:          0 MSHR_MERGE:          0
cpu0->cpu0_L1I RFO          ACCESS:          0 HIT:          0 MISS:          0 MSHR_MERGE:          0
cpu0->cpu0_L1I PREFETCH     ACCESS:          0 HIT:          0 MISS:          0 MSHR_MERGE:          0
cpu0->cpu0_L1I WRITE        ACCESS:          0 HIT:          0 MISS:          0 MSHR_MERGE:          0
cpu0->cpu0_L1I TRANSLATION  ACCESS:          0 HIT:          0 MISS:          0 MSHR_MERGE:          0
cpu0->cpu0_L1I PREFETCH REQUESTED:          0 ISSUED:          0 USEFUL:          0 USELESS:          0
cpu0->cpu0_L1I AVERAGE MISS LATENCY: - cycles
cpu0->cpu0_L1D TOTAL        ACCESS:   17984216 HIT:   14404002 MISS:    3580214 MSHR_MERGE:     831728
cpu0->cpu0_L1D LOAD         ACCESS:   12808280 HIT:    9718379 MISS:    3089901 MSHR_MERGE:     537158
cpu0->cpu0_L1D RFO          ACCESS:          0 HIT:          0 MISS:          0 MSHR_MERGE:          0
cpu0->cpu0_L1D PREFETCH     ACCESS:          0 HIT:          0 MISS:          0 MSHR_MERGE:          0
cpu0->cpu0_L1D WRITE        ACCESS:    5164326 HIT:    4682362 MISS:     481964 MSHR_MERGE:     294570
cpu0->cpu0_L1D TRANSLATION  ACCESS:      11610 HIT:       3261 MISS:       8349 MSHR_MERGE:          0
cpu0->cpu0_L1D PREFETCH REQUESTED:          0 ISSUED:          0 USEFUL:          0 USELESS:          0
cpu0->cpu0_L1D AVERAGE MISS LATENCY: 31.76 cycles
cpu0->cpu0_ITLB TOTAL        ACCESS:     403421 HIT:     403421 MISS:          0 MSHR_MERGE:          0
cpu0->cpu0_ITLB LOAD         ACCESS:     403421 HIT:     403421 MISS:          0 MSHR_MERGE:          0
cpu0->cpu0_ITLB RFO          ACCESS:          0 HIT:          0 MISS:          0 MSHR_MERGE:          0
cpu0->cpu0_ITLB PREFETCH     ACCESS:          0 HIT:          0 MISS:          0 MSHR_MERGE:          0
cpu0->cpu0_ITLB WRITE        ACCESS:          0 HIT:          0 MISS:          0 MSHR_MERGE:          0
cpu0->cpu0_ITLB TRANSLATION  ACCESS:          0 HIT:          0 MISS:          0 MSHR_MERGE:          0
cpu0->cpu0_ITLB PREFETCH REQUESTED:          0 ISSUED:          0 USEFUL:          0 USELESS:          0
cpu0->cpu0_ITLB AVERAGE MISS LATENCY: - cycles
cpu0->cpu0_DTLB TOTAL        ACCESS:   16845265 HIT:   15652873 MISS:    1192392 MSHR_MERGE:     186161
cpu0->cpu0_DTLB LOAD         ACCESS:   16845265 HIT:   15652873 MISS:    1192392 MSHR_MERGE:     186161
cpu0->cpu0_DTLB RFO          ACCESS:          0 HIT:          0 MISS:          0 MSHR_MERGE:          0
cpu0->cpu0_DTLB PREFETCH     ACCESS:          0 HIT:          0 MISS:          0 MSHR_MERGE:          0
cpu0->cpu0_DTLB WRITE        ACCESS:          0 HIT:          0 MISS:          0 MSHR_MERGE:          0
cpu0->cpu0_DTLB TRANSLATION  ACCESS:          0 HIT:          0 MISS:          0 MSHR_MERGE:          0
cpu0->cpu0_DTLB PREFETCH REQUESTED:          0 ISSUED:          0 USEFUL:          0 USELESS:          0
cpu0->cpu0_DTLB AVERAGE MISS LATENCY: 7.09 cycles
cpu0->LLC TOTAL        ACCESS:    2483125 HIT:    1446485 MISS:    1036640 MSHR_MERGE:        818
cpu0->LLC LOAD         ACCESS:    1540276 HIT:    1101479 MISS:     438797 MSHR_MERGE:        105
cpu0->LLC RFO          ACCESS:     134159 HIT:     132204 MISS:       1955 MSHR_MERGE:          0
cpu0->LLC PREFETCH     ACCESS:     599031 HIT:      14568 MISS:     584463 MSHR_MERGE:        713
cpu0->LLC WRITE        ACCESS:     202854 HIT:     198221 MISS:       4633 MSHR_MERGE:          0
cpu0->LLC TRANSLATION  ACCESS:       6805 HIT:         13 MISS:       6792 MSHR_MERGE:          0
cpu0->LLC PREFETCH REQUESTED:          0 ISSUED:          0 USEFUL:          0 USELESS:          0
cpu0->LLC AVERAGE MISS LATENCY: 75.57 cycles

DRAM Statistics

Channel 0 RQ ROW_BUFFER_HIT:     294530
  ROW_BUFFER_MISS:     736658
  AVG DBUS CONGESTED CYCLE: 4.413
Channel 0 WQ ROW_BUFFER_HIT:       1089
  ROW_BUFFER_MISS:       6062
  FULL:          0
Channel 0 REFRESHES ISSUED:      10465
