[VMEM] WARNING: physical memory size is smaller than virtual memory size.
WARNING: option --warmup_instructions is deprecated. Use --warmup-instructions instead.
WARNING: option --simulation_instructions is deprecated. Use --simulation-instructions instead.

*** ChampSim Multicore Out-of-Order Simulator ***
Warmup Instructions: 20000000
Simulation Instructions: 40000000
Number of CPUs: 1
Page size: 8192

Off-chip DRAM Size: 16 GiB Channels: 1 Width: 64-bit Data Rate: 3205 MT/s
Heartbeat CPU 0 instructions: 10000003 cycles: 6078387 heartbeat IPC: 1.645 cumulative IPC: 1.645 (Simulation time: 00 hr 01 min 48 sec)
Heartbeat CPU 0 instructions: 20000003 cycles: 12007482 heartbeat IPC: 1.687 cumulative IPC: 1.666 (Simulation time: 00 hr 03 min 42 sec)
Warmup finished CPU 0 instructions: 20000003 cycles: 12007482 cumulative IPC: 1.666 (Simulation time: 00 hr 03 min 42 sec)
Warmup complete CPU 0 instructions: 20000003 cycles: 12007482 cumulative IPC: 1.666 (Simulation time: 00 hr 03 min 42 sec)
Heartbeat CPU 0 instructions: 30000003 cycles: 30716651 heartbeat IPC: 0.5345 cumulative IPC: 0.5345 (Simulation time: 00 hr 07 min 43 sec)
Heartbeat CPU 0 instructions: 40000004 cycles: 40343059 heartbeat IPC: 1.039 cumulative IPC: 0.7058 (Simulation time: 00 hr 10 min 02 sec)
Heartbeat CPU 0 instructions: 50000004 cycles: 54672602 heartbeat IPC: 0.6979 cumulative IPC: 0.7032 (Simulation time: 00 hr 12 min 41 sec)
Heartbeat CPU 0 instructions: 60000006 cycles: 77947998 heartbeat IPC: 0.4296 cumulative IPC: 0.6066 (Simulation time: 00 hr 16 min 24 sec)
Simulation finished CPU 0 instructions: 40000003 cycles: 65940516 cumulative IPC: 0.6066 (Simulation time: 00 hr 16 min 24 sec)
Simulation complete CPU 0 instructions: 40000003 cycles: 65940516 cumulative IPC: 0.6066 (Simulation time: 00 hr 16 min 24 sec)

ChampSim completed all CPUs

=== Simulation ===
CPU 0 runs traces/A2/429.mcf-217B.champsimtrace.xz

Region of Interest Statistics

CPU 0 cumulative IPC: 0.6066 instructions: 40000003 cycles: 65940516
CPU 0 Branch Prediction Accuracy: 98.97% MPKI: 1.185 Average ROB Occupancy at Mispredict: 120.5
Branch type MPKI
BRANCH_DIRECT_JUMP: 0
BRANCH_INDIRECT: 0
BRANCH_CONDITIONAL: 1.185
BRANCH_DIRECT_CALL: 0
BRANCH_INDIRECT_CALL: 0
BRANCH_RETURN: 0

cpu0->cpu0_STLB TOTAL        ACCESS:      41128 HIT:      39677 MISS:       1451 MSHR_MERGE:          0
cpu0->cpu0_STLB LOAD         ACCESS:      41128 HIT:      39677 MISS:       1451 MSHR_MERGE:          0
cpu0->cpu0_STLB RFO          ACCESS:          0 HIT:          0 MISS:          0 MSHR_MERGE:          0
cpu0->cpu0_STLB PREFETCH     ACCESS:          0 HIT:          0 MISS:          0 MSHR_MERGE:          0
cpu0->cpu0_STLB WRITE        ACCESS:          0 HIT:          0 MISS:          0 MSHR_MERGE:          0
cpu0->cpu0_STLB TRANSLATION  ACCESS:          0 HIT:          0 MISS:          0 MSHR_MERGE:          0
cpu0->cpu0_STLB PREFETCH REQUESTED:          0 ISSUED:          0 USEFUL:          0 USELESS:          0
cpu0->cpu0_STLB AVERAGE MISS LATENCY: 583.7 cycles
cpu0->cpu0_L2C TOTAL        ACCESS:    5472383 HIT:    2623755 MISS:    2848628 MSHR_MERGE:     568504
cpu0->cpu0_L2C LOAD         ACCESS:    2195233 HIT:    1378984 MISS:     816249 MSHR_MERGE:     104769
cpu0->cpu0_L2C RFO          ACCESS:       1250 HIT:       1067 MISS:        183 MSHR_MERGE:          0
cpu0->cpu0_L2C PREFETCH     ACCESS:    3196366 HIT:    1167110 MISS:    2029256 MSHR_MERGE:     463735
cpu0->cpu0_L2C WRITE        ACCESS:      76877 HIT:      76207 MISS:        670 MSHR_MERGE:          0
cpu0->cpu0_L2C TRANSLATION  ACCESS:       2657 HIT:        387 MISS:       2270 MSHR_MERGE:          0
cpu0->cpu0_L2C PREFETCH REQUESTED:    3196400 ISSUED:    3196366 USEFUL:    1467884 USELESS:      70679
cpu0->cpu0_L2C AVERAGE MISS LATENCY: 79.61 cycles
cpu0->cpu0_L1I TOTAL        ACCESS:    7509051 HIT:    7509051 MISS:          0 MSHR_MERGE:          0
cpu0->cpu0_L1I LOAD         ACCESS:    7509051 HIT:    7509051 MISS:          0 MSHR_MERGE:          0
cpu0->cpu0_L1I RFO          ACCESS:          0 HIT:          0 MISS:          0 MSHR_MERGE:          0
cpu0->cpu0_L1I PREFETCH     ACCESS:          0 HIT:          0 MISS:          0 MSHR_MERGE:          0
cpu0->cpu0_L1I WRITE        ACCESS:          0 HIT:          0 MISS:          0 MSHR_MERGE:          0
cpu0->cpu0_L1I TRANSLATION  ACCESS:          0 HIT:          0 MISS:          0 MSHR_MERGE:          0
cpu0->cpu0_L1I PREFETCH REQUESTED:          0 ISSUED:          0 USEFUL:          0 USELESS:          0
cpu0->cpu0_L1I AVERAGE MISS LATENCY: - cycles
cpu0->cpu0_L1D TOTAL        ACCESS:   13312376 HIT:   10795679 MISS:    2516697 MSHR_MERGE:     317534
cpu0->cpu0_L1D LOAD         ACCESS:    7068721 HIT:    4557682 MISS:    2511039 MSHR_MERGE:     315783
cpu0->cpu0_L1D RFO          ACCESS:          0 HIT:          0 MISS:          0 MSHR_MERGE:          0
cpu0->cpu0_L1D PREFETCH     ACCESS:          0 HIT:          0 MISS:          0 MSHR_MERGE:          0
cpu0->cpu0_L1D WRITE        ACCESS:    6240747 HIT:    6237746 MISS:       3001 MSHR_MERGE:       1751
cpu0->cpu0_L1D TRANSLATION  ACCESS:       2908 HIT:        251 MISS:       2657 MSHR_MERGE:          0
cpu0->cpu0_L1D PREFETCH REQUESTED:          0 ISSUED:          0 USEFUL:          0 USELESS:          0
cpu0->cpu0_L1D AVERAGE MISS LATENCY: 38.04 cycles
cpu0->cpu0_ITLB TOTAL        ACCESS:    6582814 HIT:    6582814 MISS:          0 MSHR_MERGE:          0
cpu0->cpu0_ITLB LOAD         ACCESS:    6582814 HIT:    6582814 MISS:          0 MSHR_MERGE:          0
cpu0->cpu0_ITLB RFO          ACCESS:          0 HIT:          0 MISS:          0 MSHR_MERGE:          0
cpu0->cpu0_ITLB PREFETCH     ACCESS:          0 HIT:          0 MISS:          0 MSHR_MERGE:          0
cpu0->cpu0_ITLB WRITE        ACCESS:          0 HIT:          0 MISS:          0 MSHR_MERGE:          0
cpu0->cpu0_ITLB TRANSLATION  ACCESS:          0 HIT:          0 MISS:          0 MSHR_MERGE:          0
cpu0->cpu0_ITLB PREFETCH REQUESTED:          0 ISSUED:          0 USEFUL:          0 USELESS:          0
cpu0->cpu0_ITLB AVERAGE MISS LATENCY: - cycles
cpu0->cpu0_DTLB TOTAL        ACCESS:   12121866 HIT:   12070399 MISS:      51467 MSHR_MERGE:      10339
cpu0->cpu0_DTLB LOAD         ACCESS:   12121866 HIT:   12070399 MISS:      51467 MSHR_MERGE:      10339
cpu0->cpu0_DTLB RFO          ACCESS:          0 HIT:          0 MISS:          0 MSHR_MERGE:          0
cpu0->cpu0_DTLB PREFETCH     ACCESS:          0 HIT:          0 MISS:          0 MSHR_MERGE:          0
cpu0->cpu0_DTLB WRITE        ACCESS:          0 HIT:          0 MISS:          0 MSHR_MERGE:          0
cpu0->cpu0_DTLB TRANSLATION  ACCESS:          0 HIT:          0 MISS:          0 MSHR_MERGE:          0
cpu0->cpu0_DTLB PREFETCH REQUESTED:          0 ISSUED:          0 USEFUL:          0 USELESS:          0
cpu0->cpu0_DTLB AVERAGE MISS LATENCY: 24.63 cycles
cpu0->LLC TOTAL        ACCESS:    2342918 HIT:     710353 MISS:    1632565 MSHR_MERGE:       3082
cpu0->LLC LOAD         ACCESS:     711480 HIT:     181054 MISS:     530426 MSHR_MERGE:        213
cpu0->LLC RFO          ACCESS:        183 HIT:        138 MISS:         45 MSHR_MERGE:          0
cpu0->LLC PREFETCH     ACCESS:    1565521 HIT:     512213 MISS:    1053308 MSHR_MERGE:       2869
cpu0->LLC WRITE        ACCESS:      63464 HIT:      16937 MISS:      46527 MSHR_MERGE:          0
cpu0->LLC TRANSLATION  ACCESS:       2270 HIT:         11 MISS:       2259 MSHR_MERGE:          0
cpu0->LLC PREFETCH REQUESTED:          0 ISSUED:          0 USEFUL:          0 USELESS:          0
cpu0->LLC AVERAGE MISS LATENCY: 85.64 cycles

DRAM Statistics

Channel 0 RQ ROW_BUFFER_HIT:     161739
  ROW_BUFFER_MISS:    1421152
  AVG DBUS CONGESTED CYCLE: 7.227
Channel 0 WQ ROW_BUFFER_HIT:       9539
  ROW_BUFFER_MISS:      52491
  FULL:          0
Channel 0 REFRESHES ISSUED:       5495
