[VMEM] WARNING: physical memory size is smaller than virtual memory size.
WARNING: option --warmup_instructions is deprecated. Use --warmup-instructions instead.
WARNING: option --simulation_instructions is deprecated. Use --simulation-instructions instead.

*** ChampSim Multicore Out-of-Order Simulator ***
Warmup Instructions: 20000000
Simulation Instructions: 50000000
Number of CPUs: 1
Page size: 8192

Off-chip DRAM Size: 16 GiB Channels: 1 Width: 64-bit Data Rate: 3205 MT/s
Heartbeat CPU 0 instructions: 10000001 cycles: 8477903 heartbeat IPC: 1.18 cumulative IPC: 1.18 (Simulation time: 00 hr 01 min 16 sec)
Warmup finished CPU 0 instructions: 20000000 cycles: 15764303 cumulative IPC: 1.269 (Simulation time: 00 hr 02 min 23 sec)
Warmup complete CPU 0 instructions: 20000000 cycles: 15764303 cumulative IPC: 1.269 (Simulation time: 00 hr 02 min 23 sec)
Heartbeat CPU 0 instructions: 20000002 cycles: 15764304 heartbeat IPC: 1.372 cumulative IPC: 2 (Simulation time: 00 hr 02 min 23 sec)
Heartbeat CPU 0 instructions: 30000002 cycles: 44736353 heartbeat IPC: 0.3452 cumulative IPC: 0.3452 (Simulation time: 00 hr 04 min 49 sec)
Heartbeat CPU 0 instructions: 40000002 cycles: 73833878 heartbeat IPC: 0.3437 cumulative IPC: 0.3444 (Simulation time: 00 hr 07 min 18 sec)
Heartbeat CPU 0 instructions: 50000002 cycles: 102967482 heartbeat IPC: 0.3432 cumulative IPC: 0.344 (Simulation time: 00 hr 09 min 42 sec)
Heartbeat CPU 0 instructions: 60000003 cycles: 130550993 heartbeat IPC: 0.3625 cumulative IPC: 0.3485 (Simulation time: 00 hr 12 min 03 sec)
Simulation finished CPU 0 instructions: 50000001 cycles: 141655685 cumulative IPC: 0.353 (Simulation time: 00 hr 14 min 15 sec)
Simulation complete CPU 0 instructions: 50000001 cycles: 141655685 cumulative IPC: 0.353 (Simulation time: 00 hr 14 min 15 sec)

ChampSim completed all CPUs

=== Simulation ===
CPU 0 runs traces/620.omnetpp_s-874B.champsimtrace.xz

Region of Interest Statistics

CPU 0 cumulative IPC: 0.353 instructions: 50000001 cycles: 141655685
CPU 0 Branch Prediction Accuracy: 96.16% MPKI: 7.99 Average ROB Occupancy at Mispredict: 55.64
Branch type MPKI
BRANCH_DIRECT_JUMP: 0.9384
BRANCH_INDIRECT: 0.1208
BRANCH_CONDITIONAL: 5.805
BRANCH_DIRECT_CALL: 0.00236
BRANCH_INDIRECT_CALL: 0.7298
BRANCH_RETURN: 0.3936

cpu0->cpu0_STLB TOTAL        ACCESS:     829769 HIT:     692677 MISS:     137092 MSHR_MERGE:          0
cpu0->cpu0_STLB LOAD         ACCESS:     829769 HIT:     692677 MISS:     137092 MSHR_MERGE:          0
cpu0->cpu0_STLB RFO          ACCESS:          0 HIT:          0 MISS:          0 MSHR_MERGE:          0
cpu0->cpu0_STLB PREFETCH     ACCESS:          0 HIT:          0 MISS:          0 MSHR_MERGE:          0
cpu0->cpu0_STLB WRITE        ACCESS:          0 HIT:          0 MISS:          0 MSHR_MERGE:          0
cpu0->cpu0_STLB TRANSLATION  ACCESS:          0 HIT:          0 MISS:          0 MSHR_MERGE:          0
cpu0->cpu0_STLB PREFETCH REQUESTED:          0 ISSUED:          0 USEFUL:          0 USELESS:          0
cpu0->cpu0_STLB AVERAGE MISS LATENCY: 333.9 cycles
cpu0->cpu0_L2C TOTAL        ACCESS:    2800277 HIT:    1240677 MISS:    1559600 MSHR_MERGE:     110548
cpu0->cpu0_L2C LOAD         ACCESS:     932983 HIT:     360944 MISS:     572039 MSHR_MERGE:      24210
cpu0->cpu0_L2C RFO          ACCESS:     139398 HIT:      59777 MISS:      79621 MSHR_MERGE:       2465
cpu0->cpu0_L2C PREFETCH     ACCESS:     926367 HIT:     295777 MISS:     630590 MSHR_MERGE:      83873
cpu0->cpu0_L2C WRITE        ACCESS:     508024 HIT:     505269 MISS:       2755 MSHR_MERGE:          0
cpu0->cpu0_L2C TRANSLATION  ACCESS:     293505 HIT:      18910 MISS:     274595 MSHR_MERGE:          0
cpu0->cpu0_L2C PREFETCH REQUESTED:     926367 ISSUED:     926367 USEFUL:     170738 USELESS:     375981
cpu0->cpu0_L2C AVERAGE MISS LATENCY: 137.8 cycles
cpu0->cpu0_L1I TOTAL        ACCESS:   12423893 HIT:   12382917 MISS:      40976 MSHR_MERGE:      22563
cpu0->cpu0_L1I LOAD         ACCESS:   12423893 HIT:   12382917 MISS:      40976 MSHR_MERGE:      22563
cpu0->cpu0_L1I RFO          ACCESS:          0 HIT:          0 MISS:          0 MSHR_MERGE:          0
cpu0->cpu0_L1I PREFETCH     ACCESS:          0 HIT:          0 MISS:          0 MSHR_MERGE:          0
cpu0->cpu0_L1I WRITE        ACCESS:          0 HIT:          0 MISS:          0 MSHR_MERGE:          0
cpu0->cpu0_L1I TRANSLATION  ACCESS:          0 HIT:          0 MISS:          0 MSHR_MERGE:          0
cpu0->cpu0_L1I PREFETCH REQUESTED:          0 ISSUED:          0 USEFUL:          0 USELESS:          0
cpu0->cpu0_L1I AVERAGE MISS LATENCY: 26.61 cycles
cpu0->cpu0_L1D TOTAL        ACCESS:   19521351 HIT:   17684495 MISS:    1836856 MSHR_MERGE:     489374
cpu0->cpu0_L1D LOAD         ACCESS:   10050275 HIT:    8854135 MISS:    1196140 MSHR_MERGE:     281567
cpu0->cpu0_L1D RFO          ACCESS:          0 HIT:          0 MISS:          0 MSHR_MERGE:          0
cpu0->cpu0_L1D PREFETCH     ACCESS:          0 HIT:          0 MISS:          0 MSHR_MERGE:          0
cpu0->cpu0_L1D WRITE        ACCESS:    9169820 HIT:    8822906 MISS:     346914 MSHR_MERGE:     207510
cpu0->cpu0_L1D TRANSLATION  ACCESS:     301256 HIT:       7454 MISS:     293802 MSHR_MERGE:        297
cpu0->cpu0_L1D PREFETCH REQUESTED:          0 ISSUED:          0 USEFUL:          0 USELESS:          0
cpu0->cpu0_L1D AVERAGE MISS LATENCY: 103.4 cycles
cpu0->cpu0_ITLB TOTAL        ACCESS:   11384050 HIT:   11383771 MISS:        279 MSHR_MERGE:        175
cpu0->cpu0_ITLB LOAD         ACCESS:   11384050 HIT:   11383771 MISS:        279 MSHR_MERGE:        175
cpu0->cpu0_ITLB RFO          ACCESS:          0 HIT:          0 MISS:          0 MSHR_MERGE:          0
cpu0->cpu0_ITLB PREFETCH     ACCESS:          0 HIT:          0 MISS:          0 MSHR_MERGE:          0
cpu0->cpu0_ITLB WRITE        ACCESS:          0 HIT:          0 MISS:          0 MSHR_MERGE:          0
cpu0->cpu0_ITLB TRANSLATION  ACCESS:          0 HIT:          0 MISS:          0 MSHR_MERGE:          0
cpu0->cpu0_ITLB PREFETCH REQUESTED:          0 ISSUED:          0 USEFUL:          0 USELESS:          0
cpu0->cpu0_ITLB AVERAGE MISS LATENCY: 185.6 cycles
cpu0->cpu0_DTLB TOTAL        ACCESS:   18013679 HIT:   17024066 MISS:     989613 MSHR_MERGE:     159948
cpu0->cpu0_DTLB LOAD         ACCESS:   18013679 HIT:   17024066 MISS:     989613 MSHR_MERGE:     159948
cpu0->cpu0_DTLB RFO          ACCESS:          0 HIT:          0 MISS:          0 MSHR_MERGE:          0
cpu0->cpu0_DTLB PREFETCH     ACCESS:          0 HIT:          0 MISS:          0 MSHR_MERGE:          0
cpu0->cpu0_DTLB WRITE        ACCESS:          0 HIT:          0 MISS:          0 MSHR_MERGE:          0
cpu0->cpu0_DTLB TRANSLATION  ACCESS:          0 HIT:          0 MISS:          0 MSHR_MERGE:          0
cpu0->cpu0_DTLB PREFETCH REQUESTED:          0 ISSUED:          0 USEFUL:          0 USELESS:          0
cpu0->cpu0_DTLB AVERAGE MISS LATENCY: 59.31 cycles
cpu0->LLC TOTAL        ACCESS:    1842668 HIT:     441754 MISS:    1400914 MSHR_MERGE:          0
cpu0->LLC LOAD         ACCESS:     547829 HIT:     124471 MISS:     423358 MSHR_MERGE:          0
cpu0->LLC RFO          ACCESS:      77156 HIT:      13362 MISS:      63794 MSHR_MERGE:          0
cpu0->LLC PREFETCH     ACCESS:     546717 HIT:     108985 MISS:     437732 MSHR_MERGE:          0
cpu0->LLC WRITE        ACCESS:     396371 HIT:     141260 MISS:     255111 MSHR_MERGE:          0
cpu0->LLC TRANSLATION  ACCESS:     274595 HIT:      53676 MISS:     220919 MSHR_MERGE:          0
cpu0->LLC PREFETCH REQUESTED:          0 ISSUED:          0 USEFUL:          0 USELESS:          0
cpu0->LLC AVERAGE MISS LATENCY: 116 cycles

DRAM Statistics

Channel 0 RQ ROW_BUFFER_HIT:      21347
  ROW_BUFFER_MISS:    1124371
  AVG DBUS CONGESTED CYCLE: 21.48
Channel 0 WQ ROW_BUFFER_HIT:      77893
  ROW_BUFFER_MISS:     209095
  FULL:          0
Channel 0 REFRESHES ISSUED:      11805
