[VMEM] WARNING: physical memory size is smaller than virtual memory size.
WARNING: option --warmup_instructions is deprecated. Use --warmup-instructions instead.
WARNING: option --simulation_instructions is deprecated. Use --simulation-instructions instead.

*** ChampSim Multicore Out-of-Order Simulator ***
Warmup Instructions: 20000000
Simulation Instructions: 40000000
Number of CPUs: 1
Page size: 8192

Off-chip DRAM Size: 16 GiB Channels: 1 Width: 64-bit Data Rate: 3205 MT/s
Heartbeat CPU 0 instructions: 10000000 cycles: 5197815 heartbeat IPC: 1.924 cumulative IPC: 1.924 (Simulation time: 00 hr 01 min 22 sec)
Heartbeat CPU 0 instructions: 20000000 cycles: 10387561 heartbeat IPC: 1.927 cumulative IPC: 1.925 (Simulation time: 00 hr 02 min 45 sec)
Warmup finished CPU 0 instructions: 20000000 cycles: 10387561 cumulative IPC: 1.925 (Simulation time: 00 hr 02 min 45 sec)
Warmup complete CPU 0 instructions: 20000000 cycles: 10387561 cumulative IPC: 1.925 (Simulation time: 00 hr 02 min 45 sec)
Heartbeat CPU 0 instructions: 30000000 cycles: 25202641 heartbeat IPC: 0.675 cumulative IPC: 0.675 (Simulation time: 00 hr 06 min 18 sec)
Heartbeat CPU 0 instructions: 40000000 cycles: 39779252 heartbeat IPC: 0.686 cumulative IPC: 0.6805 (Simulation time: 00 hr 09 min 59 sec)
Heartbeat CPU 0 instructions: 50000000 cycles: 54302586 heartbeat IPC: 0.6885 cumulative IPC: 0.6831 (Simulation time: 00 hr 13 min 43 sec)
Heartbeat CPU 0 instructions: 60000000 cycles: 68836513 heartbeat IPC: 0.688 cumulative IPC: 0.6844 (Simulation time: 00 hr 17 min 25 sec)
Simulation finished CPU 0 instructions: 40000000 cycles: 58448952 cumulative IPC: 0.6844 (Simulation time: 00 hr 17 min 25 sec)
Simulation complete CPU 0 instructions: 40000000 cycles: 58448952 cumulative IPC: 0.6844 (Simulation time: 00 hr 17 min 25 sec)

ChampSim completed all CPUs

=== Simulation ===
CPU 0 runs traces/A2/470.lbm-1274B.champsimtrace.xz

Region of Interest Statistics

CPU 0 cumulative IPC: 0.6844 instructions: 40000000 cycles: 58448952
CPU 0 Branch Prediction Accuracy: 99.79% MPKI: 0.0287 Average ROB Occupancy at Mispredict: 190
Branch type MPKI
BRANCH_DIRECT_JUMP: 0
BRANCH_INDIRECT: 0
BRANCH_CONDITIONAL: 0.0287
BRANCH_DIRECT_CALL: 0
BRANCH_INDIRECT_CALL: 0
BRANCH_RETURN: 0

cpu0->cpu0_STLB TOTAL        ACCESS:       8892 HIT:       4446 MISS:       4446 MSHR_MERGE:          0
cpu0->cpu0_STLB LOAD         ACCESS:       8892 HIT:       4446 MISS:       4446 MSHR_MERGE:          0
cpu0->cpu0_STLB RFO          ACCESS:          0 HIT:          0 MISS:          0 MSHR_MERGE:          0
cpu0->cpu0_STLB PREFETCH     ACCESS:          0 HIT:          0 MISS:          0 MSHR_MERGE:          0
cpu0->cpu0_STLB WRITE        ACCESS:          0 HIT:          0 MISS:          0 MSHR_MERGE:          0
cpu0->cpu0_STLB TRANSLATION  ACCESS:          0 HIT:          0 MISS:          0 MSHR_MERGE:          0
cpu0->cpu0_STLB PREFETCH REQUESTED:          0 ISSUED:          0 USEFUL:          0 USELESS:          0
cpu0->cpu0_STLB AVERAGE MISS LATENCY: 900 cycles
cpu0->cpu0_L2C TOTAL        ACCESS:    3859277 HIT:    2345387 MISS:    1513890 MSHR_MERGE:         28
cpu0->cpu0_L2C LOAD         ACCESS:     284586 HIT:        489 MISS:     284097 MSHR_MERGE:          4
cpu0->cpu0_L2C RFO          ACCESS:    1602169 HIT:     740304 MISS:     861865 MSHR_MERGE:          0
cpu0->cpu0_L2C PREFETCH     ACCESS:     361398 HIT:        429 MISS:     360969 MSHR_MERGE:         24
cpu0->cpu0_L2C WRITE        ACCESS:    1602222 HIT:    1602210 MISS:         12 MSHR_MERGE:          0
cpu0->cpu0_L2C TRANSLATION  ACCESS:       8902 HIT:       1955 MISS:       6947 MSHR_MERGE:          0
cpu0->cpu0_L2C PREFETCH REQUESTED:     361398 ISSUED:     361398 USEFUL:        493 USELESS:          0
cpu0->cpu0_L2C AVERAGE MISS LATENCY: 287.9 cycles
cpu0->cpu0_L1I TOTAL        ACCESS:   11482081 HIT:   11482081 MISS:          0 MSHR_MERGE:          0
cpu0->cpu0_L1I LOAD         ACCESS:   11482081 HIT:   11482081 MISS:          0 MSHR_MERGE:          0
cpu0->cpu0_L1I RFO          ACCESS:          0 HIT:          0 MISS:          0 MSHR_MERGE:          0
cpu0->cpu0_L1I PREFETCH     ACCESS:          0 HIT:          0 MISS:          0 MSHR_MERGE:          0
cpu0->cpu0_L1I WRITE        ACCESS:          0 HIT:          0 MISS:          0 MSHR_MERGE:          0
cpu0->cpu0_L1I TRANSLATION  ACCESS:          0 HIT:          0 MISS:          0 MSHR_MERGE:          0
cpu0->cpu0_L1I PREFETCH REQUESTED:          0 ISSUED:          0 USEFUL:          0 USELESS:          0
cpu0->cpu0_L1I AVERAGE MISS LATENCY: - cycles
cpu0->cpu0_L1D TOTAL        ACCESS:    6766232 HIT:    4731272 MISS:    2034960 MSHR_MERGE:     139245
cpu0->cpu0_L1D LOAD         ACCESS:    2738498 HIT:    2329083 MISS:     409415 MSHR_MERGE:     124829
cpu0->cpu0_L1D RFO          ACCESS:          0 HIT:          0 MISS:          0 MSHR_MERGE:          0
cpu0->cpu0_L1D PREFETCH     ACCESS:          0 HIT:          0 MISS:          0 MSHR_MERGE:          0
cpu0->cpu0_L1D WRITE        ACCESS:    4018832 HIT:    2402189 MISS:    1616643 MSHR_MERGE:      14416
cpu0->cpu0_L1D TRANSLATION  ACCESS:       8902 HIT:          0 MISS:       8902 MSHR_MERGE:          0
cpu0->cpu0_L1D PREFETCH REQUESTED:          0 ISSUED:          0 USEFUL:          0 USELESS:          0
cpu0->cpu0_L1D AVERAGE MISS LATENCY: 183.9 cycles
cpu0->cpu0_ITLB TOTAL        ACCESS:   10070054 HIT:   10070054 MISS:          0 MSHR_MERGE:          0
cpu0->cpu0_ITLB LOAD         ACCESS:   10070054 HIT:   10070054 MISS:          0 MSHR_MERGE:          0
cpu0->cpu0_ITLB RFO          ACCESS:          0 HIT:          0 MISS:          0 MSHR_MERGE:          0
cpu0->cpu0_ITLB PREFETCH     ACCESS:          0 HIT:          0 MISS:          0 MSHR_MERGE:          0
cpu0->cpu0_ITLB WRITE        ACCESS:          0 HIT:          0 MISS:          0 MSHR_MERGE:          0
cpu0->cpu0_ITLB TRANSLATION  ACCESS:          0 HIT:          0 MISS:          0 MSHR_MERGE:          0
cpu0->cpu0_ITLB PREFETCH REQUESTED:          0 ISSUED:          0 USEFUL:          0 USELESS:          0
cpu0->cpu0_ITLB AVERAGE MISS LATENCY: - cycles
cpu0->cpu0_DTLB TOTAL        ACCESS:    6501741 HIT:    6484594 MISS:      17147 MSHR_MERGE:       8255
cpu0->cpu0_DTLB LOAD         ACCESS:    6501741 HIT:    6484594 MISS:      17147 MSHR_MERGE:       8255
cpu0->cpu0_DTLB RFO          ACCESS:          0 HIT:          0 MISS:          0 MSHR_MERGE:          0
cpu0->cpu0_DTLB PREFETCH     ACCESS:          0 HIT:          0 MISS:          0 MSHR_MERGE:          0
cpu0->cpu0_DTLB WRITE        ACCESS:          0 HIT:          0 MISS:          0 MSHR_MERGE:          0
cpu0->cpu0_DTLB TRANSLATION  ACCESS:          0 HIT:          0 MISS:          0 MSHR_MERGE:          0
cpu0->cpu0_DTLB PREFETCH REQUESTED:          0 ISSUED:          0 USEFUL:          0 USELESS:          0
cpu0->cpu0_DTLB AVERAGE MISS LATENCY: 454.5 cycles
cpu0->LLC TOTAL        ACCESS:    2375926 HIT:     410852 MISS:    1965074 MSHR_MERGE:        651
cpu0->LLC LOAD         ACCESS:     284093 HIT:     145568 MISS:     138525 MSHR_MERGE:         57
cpu0->LLC RFO          ACCESS:     861865 HIT:      14667 MISS:     847198 MSHR_MERGE:          0
cpu0->LLC PREFETCH     ACCESS:     360945 HIT:     214230 MISS:     146715 MSHR_MERGE:        594
cpu0->LLC WRITE        ACCESS:     862076 HIT:      36387 MISS:     825689 MSHR_MERGE:          0
cpu0->LLC TRANSLATION  ACCESS:       6947 HIT:          0 MISS:       6947 MSHR_MERGE:          0
cpu0->LLC PREFETCH REQUESTED:          0 ISSUED:          0 USEFUL:          0 USELESS:          0
cpu0->LLC AVERAGE MISS LATENCY: 175.9 cycles

DRAM Statistics

Channel 0 RQ ROW_BUFFER_HIT:       6939
  ROW_BUFFER_MISS:    1131727
  AVG DBUS CONGESTED CYCLE: 11.89
Channel 0 WQ ROW_BUFFER_HIT:     153474
  ROW_BUFFER_MISS:     713623
  FULL:          0
Channel 0 REFRESHES ISSUED:       4871
