[VMEM] WARNING: physical memory size is smaller than virtual memory size.
WARNING: option --warmup_instructions is deprecated. Use --warmup-instructions instead.
WARNING: option --simulation_instructions is deprecated. Use --simulation-instructions instead.

*** ChampSim Multicore Out-of-Order Simulator ***
Warmup Instructions: 20000000
Simulation Instructions: 40000000
Number of CPUs: 1
Page size: 8192

Off-chip DRAM Size: 16 GiB Channels: 1 Width: 64-bit Data Rate: 3205 MT/s
Heartbeat CPU 0 instructions: 10000000 cycles: 7983503 heartbeat IPC: 1.253 cumulative IPC: 1.253 (Simulation time: 00 hr 02 min 20 sec)
Heartbeat CPU 0 instructions: 20000001 cycles: 13290679 heartbeat IPC: 1.884 cumulative IPC: 1.505 (Simulation time: 00 hr 04 min 11 sec)
Warmup finished CPU 0 instructions: 20000001 cycles: 13290679 cumulative IPC: 1.505 (Simulation time: 00 hr 04 min 11 sec)
Warmup complete CPU 0 instructions: 20000001 cycles: 13290679 cumulative IPC: 1.505 (Simulation time: 00 hr 04 min 11 sec)
Heartbeat CPU 0 instructions: 30000001 cycles: 64859331 heartbeat IPC: 0.1939 cumulative IPC: 0.1939 (Simulation time: 00 hr 13 min 20 sec)
Heartbeat CPU 0 instructions: 40000001 cycles: 117393765 heartbeat IPC: 0.1904 cumulative IPC: 0.1921 (Simulation time: 00 hr 22 min 13 sec)
Heartbeat CPU 0 instructions: 50000001 cycles: 170080226 heartbeat IPC: 0.1898 cumulative IPC: 0.1913 (Simulation time: 00 hr 31 min 14 sec)
Heartbeat CPU 0 instructions: 60000001 cycles: 222520559 heartbeat IPC: 0.1907 cumulative IPC: 0.1912 (Simulation time: 00 hr 40 min 13 sec)
Simulation finished CPU 0 instructions: 40000000 cycles: 209229880 cumulative IPC: 0.1912 (Simulation time: 00 hr 40 min 13 sec)
Simulation complete CPU 0 instructions: 40000000 cycles: 209229880 cumulative IPC: 0.1912 (Simulation time: 00 hr 40 min 13 sec)

ChampSim completed all CPUs

=== Simulation ===
CPU 0 runs traces/A2/473.astar-359B.champsimtrace.xz

Region of Interest Statistics

CPU 0 cumulative IPC: 0.1912 instructions: 40000000 cycles: 209229880
CPU 0 Branch Prediction Accuracy: 93.19% MPKI: 13.42 Average ROB Occupancy at Mispredict: 43.4
Branch type MPKI
BRANCH_DIRECT_JUMP: 0
BRANCH_INDIRECT: 0
BRANCH_CONDITIONAL: 13.42
BRANCH_DIRECT_CALL: 0
BRANCH_INDIRECT_CALL: 0.000625
BRANCH_RETURN: 0

cpu0->cpu0_STLB TOTAL        ACCESS:    1029696 HIT:     715388 MISS:     314308 MSHR_MERGE:          0
cpu0->cpu0_STLB LOAD         ACCESS:    1029696 HIT:     715388 MISS:     314308 MSHR_MERGE:          0
cpu0->cpu0_STLB RFO          ACCESS:          0 HIT:          0 MISS:          0 MSHR_MERGE:          0
cpu0->cpu0_STLB PREFETCH     ACCESS:          0 HIT:          0 MISS:          0 MSHR_MERGE:          0
cpu0->cpu0_STLB WRITE        ACCESS:          0 HIT:          0 MISS:          0 MSHR_MERGE:          0
cpu0->cpu0_STLB TRANSLATION  ACCESS:          0 HIT:          0 MISS:          0 MSHR_MERGE:          0
cpu0->cpu0_STLB PREFETCH REQUESTED:          0 ISSUED:          0 USEFUL:          0 USELESS:          0
cpu0->cpu0_STLB AVERAGE MISS LATENCY: 584.7 cycles
cpu0->cpu0_L2C TOTAL        ACCESS:    3857525 HIT:    1687385 MISS:    2170140 MSHR_MERGE:       5396
cpu0->cpu0_L2C LOAD         ACCESS:    1410633 HIT:     584252 MISS:     826381 MSHR_MERGE:        353
cpu0->cpu0_L2C RFO          ACCESS:     642091 HIT:      38232 MISS:     603859 MSHR_MERGE:          0
cpu0->cpu0_L2C PREFETCH     ACCESS:     313911 HIT:      95824 MISS:     218087 MSHR_MERGE:       5043
cpu0->cpu0_L2C WRITE        ACCESS:     962010 HIT:     961980 MISS:         30 MSHR_MERGE:          0
cpu0->cpu0_L2C TRANSLATION  ACCESS:     528880 HIT:       7097 MISS:     521783 MSHR_MERGE:          0
cpu0->cpu0_L2C PREFETCH REQUESTED:     313911 ISSUED:     313911 USEFUL:       5435 USELESS:       5830
cpu0->cpu0_L2C AVERAGE MISS LATENCY: 261.9 cycles
cpu0->cpu0_L1I TOTAL        ACCESS:    1232657 HIT:    1232657 MISS:          0 MSHR_MERGE:          0
cpu0->cpu0_L1I LOAD         ACCESS:    1232657 HIT:    1232657 MISS:          0 MSHR_MERGE:          0
cpu0->cpu0_L1I RFO          ACCESS:          0 HIT:          0 MISS:          0 MSHR_MERGE:          0
cpu0->cpu0_L1I PREFETCH     ACCESS:          0 HIT:          0 MISS:          0 MSHR_MERGE:          0
cpu0->cpu0_L1I WRITE        ACCESS:          0 HIT:          0 MISS:          0 MSHR_MERGE:          0
cpu0->cpu0_L1I TRANSLATION  ACCESS:          0 HIT:          0 MISS:          0 MSHR_MERGE:          0
cpu0->cpu0_L1I PREFETCH REQUESTED:          0 ISSUED:          0 USEFUL:          0 USELESS:          0
cpu0->cpu0_L1I AVERAGE MISS LATENCY: - cycles
cpu0->cpu0_L1D TOTAL        ACCESS:   16942433 HIT:   13636844 MISS:    3305589 MSHR_MERGE:     723985
cpu0->cpu0_L1D LOAD         ACCESS:   11250411 HIT:    9192054 MISS:    2058357 MSHR_MERGE:     647724
cpu0->cpu0_L1D RFO          ACCESS:          0 HIT:          0 MISS:          0 MSHR_MERGE:          0
cpu0->cpu0_L1D PREFETCH     ACCESS:          0 HIT:          0 MISS:          0 MSHR_MERGE:          0
cpu0->cpu0_L1D WRITE        ACCESS:    5059137 HIT:    4416990 MISS:     642147 MSHR_MERGE:         56
cpu0->cpu0_L1D TRANSLATION  ACCESS:     632885 HIT:      27800 MISS:     605085 MSHR_MERGE:      76205
cpu0->cpu0_L1D PREFETCH REQUESTED:          0 ISSUED:          0 USEFUL:          0 USELESS:          0
cpu0->cpu0_L1D AVERAGE MISS LATENCY: 206.9 cycles
cpu0->cpu0_ITLB TOTAL        ACCESS:    1231082 HIT:    1231082 MISS:          0 MSHR_MERGE:          0
cpu0->cpu0_ITLB LOAD         ACCESS:    1231082 HIT:    1231082 MISS:          0 MSHR_MERGE:          0
cpu0->cpu0_ITLB RFO          ACCESS:          0 HIT:          0 MISS:          0 MSHR_MERGE:          0
cpu0->cpu0_ITLB PREFETCH     ACCESS:          0 HIT:          0 MISS:          0 MSHR_MERGE:          0
cpu0->cpu0_ITLB WRITE        ACCESS:          0 HIT:          0 MISS:          0 MSHR_MERGE:          0
cpu0->cpu0_ITLB TRANSLATION  ACCESS:          0 HIT:          0 MISS:          0 MSHR_MERGE:          0
cpu0->cpu0_ITLB PREFETCH REQUESTED:          0 ISSUED:          0 USEFUL:          0 USELESS:          0
cpu0->cpu0_ITLB AVERAGE MISS LATENCY: - cycles
cpu0->cpu0_DTLB TOTAL        ACCESS:   15843535 HIT:   14287296 MISS:    1556239 MSHR_MERGE:     526543
cpu0->cpu0_DTLB LOAD         ACCESS:   15843535 HIT:   14287296 MISS:    1556239 MSHR_MERGE:     526543
cpu0->cpu0_DTLB RFO          ACCESS:          0 HIT:          0 MISS:          0 MSHR_MERGE:          0
cpu0->cpu0_DTLB PREFETCH     ACCESS:          0 HIT:          0 MISS:          0 MSHR_MERGE:          0
cpu0->cpu0_DTLB WRITE        ACCESS:          0 HIT:          0 MISS:          0 MSHR_MERGE:          0
cpu0->cpu0_DTLB TRANSLATION  ACCESS:          0 HIT:          0 MISS:          0 MSHR_MERGE:          0
cpu0->cpu0_DTLB PREFETCH REQUESTED:          0 ISSUED:          0 USEFUL:          0 USELESS:          0
cpu0->cpu0_DTLB AVERAGE MISS LATENCY: 182.8 cycles
cpu0->LLC TOTAL        ACCESS:    3087998 HIT:     766533 MISS:    2321465 MSHR_MERGE:      17480
cpu0->LLC LOAD         ACCESS:     826028 HIT:     198063 MISS:     627965 MSHR_MERGE:       1820
cpu0->LLC RFO          ACCESS:     603859 HIT:      99703 MISS:     504156 MSHR_MERGE:          0
cpu0->LLC PREFETCH     ACCESS:     213044 HIT:     169018 MISS:      44026 MSHR_MERGE:      15660
cpu0->LLC WRITE        ACCESS:     923284 HIT:     210810 MISS:     712474 MSHR_MERGE:          0
cpu0->LLC TRANSLATION  ACCESS:     521783 HIT:      88939 MISS:     432844 MSHR_MERGE:          0
cpu0->LLC PREFETCH REQUESTED:          0 ISSUED:          0 USEFUL:          0 USELESS:          0
cpu0->LLC AVERAGE MISS LATENCY: 212.8 cycles

DRAM Statistics

Channel 0 RQ ROW_BUFFER_HIT:      54697
  ROW_BUFFER_MISS:    1536755
  AVG DBUS CONGESTED CYCLE: 20.06
Channel 0 WQ ROW_BUFFER_HIT:     110245
  ROW_BUFFER_MISS:     647012
  FULL:        515
Channel 0 REFRESHES ISSUED:      17436
