[VMEM] WARNING: physical memory size is smaller than virtual memory size.
WARNING: option --warmup_instructions is deprecated. Use --warmup-instructions instead.
WARNING: option --simulation_instructions is deprecated. Use --simulation-instructions instead.

*** ChampSim Multicore Out-of-Order Simulator ***
Warmup Instructions: 20000000
Simulation Instructions: 40000000
Number of CPUs: 1
Page size: 8192

Off-chip DRAM Size: 16 GiB Channels: 1 Width: 64-bit Data Rate: 3205 MT/s
Heartbeat CPU 0 instructions: 10000000 cycles: 5168692 heartbeat IPC: 1.935 cumulative IPC: 1.935 (Simulation time: 00 hr 01 min 25 sec)
Heartbeat CPU 0 instructions: 20000000 cycles: 10329421 heartbeat IPC: 1.938 cumulative IPC: 1.936 (Simulation time: 00 hr 02 min 50 sec)
Warmup finished CPU 0 instructions: 20000000 cycles: 10329421 cumulative IPC: 1.936 (Simulation time: 00 hr 02 min 50 sec)
Warmup complete CPU 0 instructions: 20000000 cycles: 10329421 cumulative IPC: 1.936 (Simulation time: 00 hr 02 min 50 sec)
Heartbeat CPU 0 instructions: 30000001 cycles: 19601806 heartbeat IPC: 1.078 cumulative IPC: 1.078 (Simulation time: 00 hr 05 min 24 sec)
Heartbeat CPU 0 instructions: 40000002 cycles: 28854393 heartbeat IPC: 1.081 cumulative IPC: 1.08 (Simulation time: 00 hr 07 min 52 sec)
Heartbeat CPU 0 instructions: 50000002 cycles: 38115364 heartbeat IPC: 1.08 cumulative IPC: 1.08 (Simulation time: 00 hr 10 min 27 sec)
Simulation finished CPU 0 instructions: 40000000 cycles: 37065658 cumulative IPC: 1.079 (Simulation time: 00 hr 13 min 08 sec)
Simulation complete CPU 0 instructions: 40000000 cycles: 37065658 cumulative IPC: 1.079 (Simulation time: 00 hr 13 min 08 sec)

ChampSim completed all CPUs

=== Simulation ===
CPU 0 runs traces/A2/603.bwaves_s-1740B.champsimtrace.xz

Region of Interest Statistics

CPU 0 cumulative IPC: 1.079 instructions: 40000000 cycles: 37065658
CPU 0 Branch Prediction Accuracy: 99.97% MPKI: 0.007325 Average ROB Occupancy at Mispredict: 189.8
Branch type MPKI
BRANCH_DIRECT_JUMP: 0
BRANCH_INDIRECT: 0
BRANCH_CONDITIONAL: 0.007325
BRANCH_DIRECT_CALL: 0
BRANCH_INDIRECT_CALL: 0
BRANCH_RETURN: 0

cpu0->cpu0_STLB TOTAL        ACCESS:       5935 HIT:        293 MISS:       5642 MSHR_MERGE:          0
cpu0->cpu0_STLB LOAD         ACCESS:       5935 HIT:        293 MISS:       5642 MSHR_MERGE:          0
cpu0->cpu0_STLB RFO          ACCESS:          0 HIT:          0 MISS:          0 MSHR_MERGE:          0
cpu0->cpu0_STLB PREFETCH     ACCESS:          0 HIT:          0 MISS:          0 MSHR_MERGE:          0
cpu0->cpu0_STLB WRITE        ACCESS:          0 HIT:          0 MISS:          0 MSHR_MERGE:          0
cpu0->cpu0_STLB TRANSLATION  ACCESS:          0 HIT:          0 MISS:          0 MSHR_MERGE:          0
cpu0->cpu0_STLB PREFETCH REQUESTED:          0 ISSUED:          0 USEFUL:          0 USELESS:          0
cpu0->cpu0_STLB AVERAGE MISS LATENCY: 689.6 cycles
cpu0->cpu0_L2C TOTAL        ACCESS:    2656661 HIT:    1161405 MISS:    1495256 MSHR_MERGE:     296670
cpu0->cpu0_L2C LOAD         ACCESS:     819002 HIT:     631656 MISS:     187346 MSHR_MERGE:      68947
cpu0->cpu0_L2C RFO          ACCESS:      26340 HIT:       6850 MISS:      19490 MSHR_MERGE:          0
cpu0->cpu0_L2C PREFETCH     ACCESS:    1771381 HIT:     491529 MISS:    1279852 MSHR_MERGE:     227723
cpu0->cpu0_L2C WRITE        ACCESS:      29149 HIT:      28932 MISS:        217 MSHR_MERGE:          0
cpu0->cpu0_L2C TRANSLATION  ACCESS:      10789 HIT:       2438 MISS:       8351 MSHR_MERGE:          0
cpu0->cpu0_L2C PREFETCH REQUESTED:    1771378 ISSUED:    1771378 USEFUL:     627823 USELESS:          2
cpu0->cpu0_L2C AVERAGE MISS LATENCY: 88.66 cycles
cpu0->cpu0_L1I TOTAL        ACCESS:   12651803 HIT:   12651803 MISS:          0 MSHR_MERGE:          0
cpu0->cpu0_L1I LOAD         ACCESS:   12651803 HIT:   12651803 MISS:          0 MSHR_MERGE:          0
cpu0->cpu0_L1I RFO          ACCESS:          0 HIT:          0 MISS:          0 MSHR_MERGE:          0
cpu0->cpu0_L1I PREFETCH     ACCESS:          0 HIT:          0 MISS:          0 MSHR_MERGE:          0
cpu0->cpu0_L1I WRITE        ACCESS:          0 HIT:          0 MISS:          0 MSHR_MERGE:          0
cpu0->cpu0_L1I TRANSLATION  ACCESS:          0 HIT:          0 MISS:          0 MSHR_MERGE:          0
cpu0->cpu0_L1I PREFETCH REQUESTED:          0 ISSUED:          0 USEFUL:          0 USELESS:          0
cpu0->cpu0_L1I AVERAGE MISS LATENCY: - cycles
cpu0->cpu0_L1D TOTAL        ACCESS:   14554165 HIT:   13656059 MISS:     898106 MSHR_MERGE:      41896
cpu0->cpu0_L1D LOAD         ACCESS:   12289581 HIT:   11439372 MISS:     850209 MSHR_MERGE:      31142
cpu0->cpu0_L1D RFO          ACCESS:          0 HIT:          0 MISS:          0 MSHR_MERGE:          0
cpu0->cpu0_L1D PREFETCH     ACCESS:          0 HIT:          0 MISS:          0 MSHR_MERGE:          0
cpu0->cpu0_L1D WRITE        ACCESS:    2253355 HIT:    2216451 MISS:      36904 MSHR_MERGE:      10550
cpu0->cpu0_L1D TRANSLATION  ACCESS:      11229 HIT:        236 MISS:      10993 MSHR_MERGE:        204
cpu0->cpu0_L1D PREFETCH REQUESTED:          0 ISSUED:          0 USEFUL:          0 USELESS:          0
cpu0->cpu0_L1D AVERAGE MISS LATENCY: 30.72 cycles
cpu0->cpu0_ITLB TOTAL        ACCESS:   11882523 HIT:   11882523 MISS:          0 MSHR_MERGE:          0
cpu0->cpu0_ITLB LOAD         ACCESS:   11882523 HIT:   11882523 MISS:          0 MSHR_MERGE:          0
cpu0->cpu0_ITLB RFO          ACCESS:          0 HIT:          0 MISS:          0 MSHR_MERGE:          0
cpu0->cpu0_ITLB PREFETCH     ACCESS:          0 HIT:          0 MISS:          0 MSHR_MERGE:          0
cpu0->cpu0_ITLB WRITE        ACCESS:          0 HIT:          0 MISS:          0 MSHR_MERGE:          0
cpu0->cpu0_ITLB TRANSLATION  ACCESS:          0 HIT:          0 MISS:          0 MSHR_MERGE:          0
cpu0->cpu0_ITLB PREFETCH REQUESTED:          0 ISSUED:          0 USEFUL:          0 USELESS:          0
cpu0->cpu0_ITLB AVERAGE MISS LATENCY: - cycles
cpu0->cpu0_DTLB TOTAL        ACCESS:   14072191 HIT:   14062036 MISS:      10155 MSHR_MERGE:       4220
cpu0->cpu0_DTLB LOAD         ACCESS:   14072191 HIT:   14062036 MISS:      10155 MSHR_MERGE:       4220
cpu0->cpu0_DTLB RFO          ACCESS:          0 HIT:          0 MISS:          0 MSHR_MERGE:          0
cpu0->cpu0_DTLB PREFETCH     ACCESS:          0 HIT:          0 MISS:          0 MSHR_MERGE:          0
cpu0->cpu0_DTLB WRITE        ACCESS:          0 HIT:          0 MISS:          0 MSHR_MERGE:          0
cpu0->cpu0_DTLB TRANSLATION  ACCESS:          0 HIT:          0 MISS:          0 MSHR_MERGE:          0
cpu0->cpu0_DTLB PREFETCH REQUESTED:          0 ISSUED:          0 USEFUL:          0 USELESS:          0
cpu0->cpu0_DTLB AVERAGE MISS LATENCY: 660.5 cycles
cpu0->LLC TOTAL        ACCESS:    1218105 HIT:     327023 MISS:     891082 MSHR_MERGE:      77469
cpu0->LLC LOAD         ACCESS:     118399 HIT:      82518 MISS:      35881 MSHR_MERGE:       7654
cpu0->LLC RFO          ACCESS:      19490 HIT:          0 MISS:      19490 MSHR_MERGE:          0
cpu0->LLC PREFETCH     ACCESS:    1052129 HIT:     242178 MISS:     809951 MSHR_MERGE:      69815
cpu0->LLC WRITE        ACCESS:      19736 HIT:       2318 MISS:      17418 MSHR_MERGE:          0
cpu0->LLC TRANSLATION  ACCESS:       8351 HIT:          9 MISS:       8342 MSHR_MERGE:          0
cpu0->LLC PREFETCH REQUESTED:          0 ISSUED:          0 USEFUL:          0 USELESS:          0
cpu0->LLC AVERAGE MISS LATENCY: 125.6 cycles

DRAM Statistics

Channel 0 RQ ROW_BUFFER_HIT:      16717
  ROW_BUFFER_MISS:     779477
  AVG DBUS CONGESTED CYCLE: 4.192
Channel 0 WQ ROW_BUFFER_HIT:       1523
  ROW_BUFFER_MISS:      19038
  FULL:          0
Channel 0 REFRESHES ISSUED:       3089
