[VMEM] WARNING: physical memory size is smaller than virtual memory size.
WARNING: option --warmup_instructions is deprecated. Use --warmup-instructions instead.
WARNING: option --simulation_instructions is deprecated. Use --simulation-instructions instead.

*** ChampSim Multicore Out-of-Order Simulator ***
Warmup Instructions: 20000000
Simulation Instructions: 50000000
Number of CPUs: 1
Page size: 8192

Off-chip DRAM Size: 16 GiB Channels: 1 Width: 64-bit Data Rate: 3205 MT/s
Heartbeat CPU 0 instructions: 10000002 cycles: 6070814 heartbeat IPC: 1.647 cumulative IPC: 1.647 (Simulation time: 00 hr 00 min 57 sec)
Warmup finished CPU 0 instructions: 20000000 cycles: 11996636 cumulative IPC: 1.667 (Simulation time: 00 hr 01 min 58 sec)
Warmup complete CPU 0 instructions: 20000000 cycles: 11996636 cumulative IPC: 1.667 (Simulation time: 00 hr 01 min 58 sec)
Heartbeat CPU 0 instructions: 20000004 cycles: 11996637 heartbeat IPC: 1.688 cumulative IPC: 4 (Simulation time: 00 hr 01 min 58 sec)
Heartbeat CPU 0 instructions: 30000007 cycles: 44654666 heartbeat IPC: 0.3062 cumulative IPC: 0.3062 (Simulation time: 00 hr 05 min 22 sec)
Heartbeat CPU 0 instructions: 40000009 cycles: 58200683 heartbeat IPC: 0.7382 cumulative IPC: 0.4329 (Simulation time: 00 hr 07 min 04 sec)
Heartbeat CPU 0 instructions: 50000009 cycles: 81477044 heartbeat IPC: 0.4296 cumulative IPC: 0.4318 (Simulation time: 00 hr 09 min 42 sec)
Heartbeat CPU 0 instructions: 60000010 cycles: 124089536 heartbeat IPC: 0.2347 cumulative IPC: 0.3568 (Simulation time: 00 hr 14 min 08 sec)
Simulation finished CPU 0 instructions: 50000000 cycles: 134391320 cumulative IPC: 0.372 (Simulation time: 00 hr 16 min 37 sec)
Simulation complete CPU 0 instructions: 50000000 cycles: 134391320 cumulative IPC: 0.372 (Simulation time: 00 hr 16 min 37 sec)

ChampSim completed all CPUs

=== Simulation ===
CPU 0 runs traces/429.mcf-217B.champsimtrace.xz

Region of Interest Statistics

CPU 0 cumulative IPC: 0.372 instructions: 50000000 cycles: 134391320
CPU 0 Branch Prediction Accuracy: 98.95% MPKI: 1.194 Average ROB Occupancy at Mispredict: 119.9
Branch type MPKI
BRANCH_DIRECT_JUMP: 0
BRANCH_INDIRECT: 0
BRANCH_CONDITIONAL: 1.194
BRANCH_DIRECT_CALL: 0
BRANCH_INDIRECT_CALL: 0
BRANCH_RETURN: 0

cpu0->cpu0_STLB TOTAL        ACCESS:      57990 HIT:      56140 MISS:       1850 MSHR_MERGE:          0
cpu0->cpu0_STLB LOAD         ACCESS:      57990 HIT:      56140 MISS:       1850 MSHR_MERGE:          0
cpu0->cpu0_STLB RFO          ACCESS:          0 HIT:          0 MISS:          0 MSHR_MERGE:          0
cpu0->cpu0_STLB PREFETCH     ACCESS:          0 HIT:          0 MISS:          0 MSHR_MERGE:          0
cpu0->cpu0_STLB WRITE        ACCESS:          0 HIT:          0 MISS:          0 MSHR_MERGE:          0
cpu0->cpu0_STLB TRANSLATION  ACCESS:          0 HIT:          0 MISS:          0 MSHR_MERGE:          0
cpu0->cpu0_STLB PREFETCH REQUESTED:          0 ISSUED:          0 USEFUL:          0 USELESS:          0
cpu0->cpu0_STLB AVERAGE MISS LATENCY: 583 cycles
cpu0->cpu0_L2C TOTAL        ACCESS:    2699626 HIT:     117034 MISS:    2582592 MSHR_MERGE:          0
cpu0->cpu0_L2C LOAD         ACCESS:    2598456 HIT:      19822 MISS:    2578634 MSHR_MERGE:          0
cpu0->cpu0_L2C RFO          ACCESS:       1568 HIT:       1365 MISS:        203 MSHR_MERGE:          0
cpu0->cpu0_L2C PREFETCH     ACCESS:          0 HIT:          0 MISS:          0 MSHR_MERGE:          0
cpu0->cpu0_L2C WRITE        ACCESS:      96213 HIT:      95347 MISS:        866 MSHR_MERGE:          0
cpu0->cpu0_L2C TRANSLATION  ACCESS:       3389 HIT:        500 MISS:       2889 MSHR_MERGE:          0
cpu0->cpu0_L2C PREFETCH REQUESTED:          0 ISSUED:          0 USEFUL:          0 USELESS:          0
cpu0->cpu0_L2C AVERAGE MISS LATENCY: 79.99 cycles
cpu0->cpu0_L1I TOTAL        ACCESS:    9618828 HIT:    9618828 MISS:          0 MSHR_MERGE:          0
cpu0->cpu0_L1I LOAD         ACCESS:    9618828 HIT:    9618828 MISS:          0 MSHR_MERGE:          0
cpu0->cpu0_L1I RFO          ACCESS:          0 HIT:          0 MISS:          0 MSHR_MERGE:          0
cpu0->cpu0_L1I PREFETCH     ACCESS:          0 HIT:          0 MISS:          0 MSHR_MERGE:          0
cpu0->cpu0_L1I WRITE        ACCESS:          0 HIT:          0 MISS:          0 MSHR_MERGE:          0
cpu0->cpu0_L1I TRANSLATION  ACCESS:          0 HIT:          0 MISS:          0 MSHR_MERGE:          0
cpu0->cpu0_L1I PREFETCH REQUESTED:          0 ISSUED:          0 USEFUL:          0 USELESS:          0
cpu0->cpu0_L1I AVERAGE MISS LATENCY: - cycles
cpu0->cpu0_L1D TOTAL        ACCESS:   16525175 HIT:   13793814 MISS:    2731361 MSHR_MERGE:     127914
cpu0->cpu0_L1D LOAD         ACCESS:    8644088 HIT:    5919939 MISS:    2724149 MSHR_MERGE:     125659
cpu0->cpu0_L1D RFO          ACCESS:          0 HIT:          0 MISS:          0 MSHR_MERGE:          0
cpu0->cpu0_L1D PREFETCH     ACCESS:          0 HIT:          0 MISS:          0 MSHR_MERGE:          0
cpu0->cpu0_L1D WRITE        ACCESS:    7877380 HIT:    7873557 MISS:       3823 MSHR_MERGE:       2255
cpu0->cpu0_L1D TRANSLATION  ACCESS:       3707 HIT:        318 MISS:       3389 MSHR_MERGE:          0
cpu0->cpu0_L1D PREFETCH REQUESTED:          0 ISSUED:          0 USEFUL:          0 USELESS:          0
cpu0->cpu0_L1D AVERAGE MISS LATENCY: 88.34 cycles
cpu0->cpu0_ITLB TOTAL        ACCESS:    8452148 HIT:    8452148 MISS:          0 MSHR_MERGE:          0
cpu0->cpu0_ITLB LOAD         ACCESS:    8452148 HIT:    8452148 MISS:          0 MSHR_MERGE:          0
cpu0->cpu0_ITLB RFO          ACCESS:          0 HIT:          0 MISS:          0 MSHR_MERGE:          0
cpu0->cpu0_ITLB PREFETCH     ACCESS:          0 HIT:          0 MISS:          0 MSHR_MERGE:          0
cpu0->cpu0_ITLB WRITE        ACCESS:          0 HIT:          0 MISS:          0 MSHR_MERGE:          0
cpu0->cpu0_ITLB TRANSLATION  ACCESS:          0 HIT:          0 MISS:          0 MSHR_MERGE:          0
cpu0->cpu0_ITLB PREFETCH REQUESTED:          0 ISSUED:          0 USEFUL:          0 USELESS:          0
cpu0->cpu0_ITLB AVERAGE MISS LATENCY: - cycles
cpu0->cpu0_DTLB TOTAL        ACCESS:   14987546 HIT:   14913969 MISS:      73577 MSHR_MERGE:      15587
cpu0->cpu0_DTLB LOAD         ACCESS:   14987546 HIT:   14913969 MISS:      73577 MSHR_MERGE:      15587
cpu0->cpu0_DTLB RFO          ACCESS:          0 HIT:          0 MISS:          0 MSHR_MERGE:          0
cpu0->cpu0_DTLB PREFETCH     ACCESS:          0 HIT:          0 MISS:          0 MSHR_MERGE:          0
cpu0->cpu0_DTLB WRITE        ACCESS:          0 HIT:          0 MISS:          0 MSHR_MERGE:          0
cpu0->cpu0_DTLB TRANSLATION  ACCESS:          0 HIT:          0 MISS:          0 MSHR_MERGE:          0
cpu0->cpu0_DTLB PREFETCH REQUESTED:          0 ISSUED:          0 USEFUL:          0 USELESS:          0
cpu0->cpu0_DTLB AVERAGE MISS LATENCY: 22.63 cycles
cpu0->LLC TOTAL        ACCESS:    2662277 HIT:     716043 MISS:    1946234 MSHR_MERGE:          0
cpu0->LLC LOAD         ACCESS:    2578634 HIT:     694340 MISS:    1884294 MSHR_MERGE:          0
cpu0->LLC RFO          ACCESS:        203 HIT:        156 MISS:         47 MSHR_MERGE:          0
cpu0->LLC PREFETCH     ACCESS:          0 HIT:          0 MISS:          0 MSHR_MERGE:          0
cpu0->LLC WRITE        ACCESS:      80551 HIT:      21538 MISS:      59013 MSHR_MERGE:          0
cpu0->LLC TRANSLATION  ACCESS:       2889 HIT:          9 MISS:       2880 MSHR_MERGE:          0
cpu0->LLC PREFETCH REQUESTED:          0 ISSUED:          0 USEFUL:          0 USELESS:          0
cpu0->LLC AVERAGE MISS LATENCY: 84.22 cycles

DRAM Statistics

Channel 0 RQ ROW_BUFFER_HIT:     175086
  ROW_BUFFER_MISS:    1712061
  AVG DBUS CONGESTED CYCLE: 10.21
Channel 0 WQ ROW_BUFFER_HIT:      11382
  ROW_BUFFER_MISS:      64799
  FULL:          0
Channel 0 REFRESHES ISSUED:      11199
