[VMEM] WARNING: physical memory size is smaller than virtual memory size.
WARNING: option --warmup_instructions is deprecated. Use --warmup-instructions instead.
WARNING: option --simulation_instructions is deprecated. Use --simulation-instructions instead.

*** ChampSim Multicore Out-of-Order Simulator ***
Warmup Instructions: 20000000
Simulation Instructions: 50000000
Number of CPUs: 1
Page size: 65536

Off-chip DRAM Size: 16 GiB Channels: 1 Width: 64-bit Data Rate: 3205 MT/s
Heartbeat CPU 0 instructions: 10000001 cycles: 4247800 heartbeat IPC: 2.354 cumulative IPC: 2.354 (Simulation time: 00 hr 00 min 51 sec)
Heartbeat CPU 0 instructions: 20000002 cycles: 8475642 heartbeat IPC: 2.365 cumulative IPC: 2.36 (Simulation time: 00 hr 01 min 42 sec)
Warmup finished CPU 0 instructions: 20000002 cycles: 8475642 cumulative IPC: 2.36 (Simulation time: 00 hr 01 min 42 sec)
Warmup complete CPU 0 instructions: 20000002 cycles: 8475642 cumulative IPC: 2.36 (Simulation time: 00 hr 01 min 42 sec)
Heartbeat CPU 0 instructions: 30000005 cycles: 50533383 heartbeat IPC: 0.2378 cumulative IPC: 0.2378 (Simulation time: 00 hr 05 min 10 sec)
Heartbeat CPU 0 instructions: 40000005 cycles: 92074726 heartbeat IPC: 0.2407 cumulative IPC: 0.2392 (Simulation time: 00 hr 08 min 35 sec)
Heartbeat CPU 0 instructions: 50000007 cycles: 134811637 heartbeat IPC: 0.234 cumulative IPC: 0.2375 (Simulation time: 00 hr 12 min 03 sec)
Heartbeat CPU 0 instructions: 60000007 cycles: 176709695 heartbeat IPC: 0.2387 cumulative IPC: 0.2378 (Simulation time: 00 hr 15 min 32 sec)
Simulation finished CPU 0 instructions: 50000002 cycles: 211331449 cumulative IPC: 0.2366 (Simulation time: 00 hr 19 min 04 sec)
Simulation complete CPU 0 instructions: 50000002 cycles: 211331449 cumulative IPC: 0.2366 (Simulation time: 00 hr 19 min 04 sec)

ChampSim completed all CPUs

=== Simulation ===
CPU 0 runs traces/605.mcf_s-1152B.champsimtrace.xz

Region of Interest Statistics

CPU 0 cumulative IPC: 0.2366 instructions: 50000002 cycles: 211331449
CPU 0 Branch Prediction Accuracy: 90.19% MPKI: 24.48 Average ROB Occupancy at Mispredict: 20.96
Branch type MPKI
BRANCH_DIRECT_JUMP: 0.2057
BRANCH_INDIRECT: 0
BRANCH_CONDITIONAL: 24.27
BRANCH_DIRECT_CALL: 0
BRANCH_INDIRECT_CALL: 0.0036
BRANCH_RETURN: 2e-05

cpu0->cpu0_STLB TOTAL        ACCESS:      85897 HIT:      85044 MISS:        853 MSHR_MERGE:          0
cpu0->cpu0_STLB LOAD         ACCESS:      85897 HIT:      85044 MISS:        853 MSHR_MERGE:          0
cpu0->cpu0_STLB RFO          ACCESS:          0 HIT:          0 MISS:          0 MSHR_MERGE:          0
cpu0->cpu0_STLB PREFETCH     ACCESS:          0 HIT:          0 MISS:          0 MSHR_MERGE:          0
cpu0->cpu0_STLB WRITE        ACCESS:          0 HIT:          0 MISS:          0 MSHR_MERGE:          0
cpu0->cpu0_STLB TRANSLATION  ACCESS:          0 HIT:          0 MISS:          0 MSHR_MERGE:          0
cpu0->cpu0_STLB PREFETCH REQUESTED:          0 ISSUED:          0 USEFUL:          0 USELESS:          0
cpu0->cpu0_STLB AVERAGE MISS LATENCY: 670.6 cycles
cpu0->cpu0_L2C TOTAL        ACCESS:    3007539 HIT:     747679 MISS:    2259860 MSHR_MERGE:          0
cpu0->cpu0_L2C LOAD         ACCESS:    2552631 HIT:     420788 MISS:    2131843 MSHR_MERGE:          0
cpu0->cpu0_L2C RFO          ACCESS:     187387 HIT:      61054 MISS:     126333 MSHR_MERGE:          0
cpu0->cpu0_L2C PREFETCH     ACCESS:          0 HIT:          0 MISS:          0 MSHR_MERGE:          0
cpu0->cpu0_L2C WRITE        ACCESS:     265784 HIT:     265465 MISS:        319 MSHR_MERGE:          0
cpu0->cpu0_L2C TRANSLATION  ACCESS:       1737 HIT:        372 MISS:       1365 MSHR_MERGE:          0
cpu0->cpu0_L2C PREFETCH REQUESTED:          0 ISSUED:          0 USEFUL:          0 USELESS:          0
cpu0->cpu0_L2C AVERAGE MISS LATENCY: 82.78 cycles
cpu0->cpu0_L1I TOTAL        ACCESS:     447010 HIT:     447010 MISS:          0 MSHR_MERGE:          0
cpu0->cpu0_L1I LOAD         ACCESS:     447010 HIT:     447010 MISS:          0 MSHR_MERGE:          0
cpu0->cpu0_L1I RFO          ACCESS:          0 HIT:          0 MISS:          0 MSHR_MERGE:          0
cpu0->cpu0_L1I PREFETCH     ACCESS:          0 HIT:          0 MISS:          0 MSHR_MERGE:          0
cpu0->cpu0_L1I WRITE        ACCESS:          0 HIT:          0 MISS:          0 MSHR_MERGE:          0
cpu0->cpu0_L1I TRANSLATION  ACCESS:          0 HIT:          0 MISS:          0 MSHR_MERGE:          0
cpu0->cpu0_L1I PREFETCH REQUESTED:          0 ISSUED:          0 USEFUL:          0 USELESS:          0
cpu0->cpu0_L1I AVERAGE MISS LATENCY: - cycles
cpu0->cpu0_L1D TOTAL        ACCESS:   18200915 HIT:   14560073 MISS:    3640842 MSHR_MERGE:     899082
cpu0->cpu0_L1D LOAD         ACCESS:   13033974 HIT:    9865851 MISS:    3168123 MSHR_MERGE:     615490
cpu0->cpu0_L1D RFO          ACCESS:          0 HIT:          0 MISS:          0 MSHR_MERGE:          0
cpu0->cpu0_L1D PREFETCH     ACCESS:          0 HIT:          0 MISS:          0 MSHR_MERGE:          0
cpu0->cpu0_L1D WRITE        ACCESS:    5165204 HIT:    4694222 MISS:     470982 MSHR_MERGE:     283592
cpu0->cpu0_L1D TRANSLATION  ACCESS:       1737 HIT:          0 MISS:       1737 MSHR_MERGE:          0
cpu0->cpu0_L1D PREFETCH REQUESTED:          0 ISSUED:          0 USEFUL:          0 USELESS:          0
cpu0->cpu0_L1D AVERAGE MISS LATENCY: 77.06 cycles
cpu0->cpu0_ITLB TOTAL        ACCESS:     389254 HIT:     389254 MISS:          0 MSHR_MERGE:          0
cpu0->cpu0_ITLB LOAD         ACCESS:     389254 HIT:     389254 MISS:          0 MSHR_MERGE:          0
cpu0->cpu0_ITLB RFO          ACCESS:          0 HIT:          0 MISS:          0 MSHR_MERGE:          0
cpu0->cpu0_ITLB PREFETCH     ACCESS:          0 HIT:          0 MISS:          0 MSHR_MERGE:          0
cpu0->cpu0_ITLB WRITE        ACCESS:          0 HIT:          0 MISS:          0 MSHR_MERGE:          0
cpu0->cpu0_ITLB TRANSLATION  ACCESS:          0 HIT:          0 MISS:          0 MSHR_MERGE:          0
cpu0->cpu0_ITLB PREFETCH REQUESTED:          0 ISSUED:          0 USEFUL:          0 USELESS:          0
cpu0->cpu0_ITLB AVERAGE MISS LATENCY: - cycles
cpu0->cpu0_DTLB TOTAL        ACCESS:   16578016 HIT:   16478420 MISS:      99596 MSHR_MERGE:      13699
cpu0->cpu0_DTLB LOAD         ACCESS:   16578016 HIT:   16478420 MISS:      99596 MSHR_MERGE:      13699
cpu0->cpu0_DTLB RFO          ACCESS:          0 HIT:          0 MISS:          0 MSHR_MERGE:          0
cpu0->cpu0_DTLB PREFETCH     ACCESS:          0 HIT:          0 MISS:          0 MSHR_MERGE:          0
cpu0->cpu0_DTLB WRITE        ACCESS:          0 HIT:          0 MISS:          0 MSHR_MERGE:          0
cpu0->cpu0_DTLB TRANSLATION  ACCESS:          0 HIT:          0 MISS:          0 MSHR_MERGE:          0
cpu0->cpu0_DTLB PREFETCH REQUESTED:          0 ISSUED:          0 USEFUL:          0 USELESS:          0
cpu0->cpu0_DTLB AVERAGE MISS LATENCY: 10.67 cycles
cpu0->LLC TOTAL        ACCESS:    2459092 HIT:    1397836 MISS:    1061256 MSHR_MERGE:          0
cpu0->LLC LOAD         ACCESS:    2131842 HIT:    1078784 MISS:    1053058 MSHR_MERGE:          0
cpu0->LLC RFO          ACCESS:     126333 HIT:     124400 MISS:       1933 MSHR_MERGE:          0
cpu0->LLC PREFETCH     ACCESS:          0 HIT:          0 MISS:          0 MSHR_MERGE:          0
cpu0->LLC WRITE        ACCESS:     199552 HIT:     194587 MISS:       4965 MSHR_MERGE:          0
cpu0->LLC TRANSLATION  ACCESS:       1365 HIT:         65 MISS:       1300 MSHR_MERGE:          0
cpu0->LLC PREFETCH REQUESTED:          0 ISSUED:          0 USEFUL:          0 USELESS:          0
cpu0->LLC AVERAGE MISS LATENCY: 141.3 cycles

DRAM Statistics

Channel 0 RQ ROW_BUFFER_HIT:     186492
  ROW_BUFFER_MISS:     869666
  AVG DBUS CONGESTED CYCLE: 26.64
Channel 0 WQ ROW_BUFFER_HIT:       1191
  ROW_BUFFER_MISS:       5965
  FULL:          0
Channel 0 REFRESHES ISSUED:      17611
