[VMEM] WARNING: physical memory size is smaller than virtual memory size.
WARNING: option --warmup_instructions is deprecated. Use --warmup-instructions instead.
WARNING: option --simulation_instructions is deprecated. Use --simulation-instructions instead.

*** ChampSim Multicore Out-of-Order Simulator ***
Warmup Instructions: 20000000
Simulation Instructions: 50000000
Number of CPUs: 1
Page size: 8192

Off-chip DRAM Size: 16 GiB Channels: 1 Width: 64-bit Data Rate: 3205 MT/s
Heartbeat CPU 0 instructions: 10000000 cycles: 6445354 heartbeat IPC: 1.552 cumulative IPC: 1.552 (Simulation time: 00 hr 01 min 02 sec)
Heartbeat CPU 0 instructions: 20000001 cycles: 10288106 heartbeat IPC: 2.602 cumulative IPC: 1.944 (Simulation time: 00 hr 01 min 51 sec)
Warmup finished CPU 0 instructions: 20000001 cycles: 10288106 cumulative IPC: 1.944 (Simulation time: 00 hr 01 min 51 sec)
Warmup complete CPU 0 instructions: 20000001 cycles: 10288106 cumulative IPC: 1.944 (Simulation time: 00 hr 01 min 51 sec)
Heartbeat CPU 0 instructions: 30000003 cycles: 57131231 heartbeat IPC: 0.2135 cumulative IPC: 0.2135 (Simulation time: 00 hr 05 min 32 sec)
Heartbeat CPU 0 instructions: 40000006 cycles: 104450752 heartbeat IPC: 0.2113 cumulative IPC: 0.2124 (Simulation time: 00 hr 09 min 01 sec)
Heartbeat CPU 0 instructions: 50000006 cycles: 151967290 heartbeat IPC: 0.2105 cumulative IPC: 0.2117 (Simulation time: 00 hr 12 min 33 sec)
Heartbeat CPU 0 instructions: 60000007 cycles: 198428451 heartbeat IPC: 0.2152 cumulative IPC: 0.2126 (Simulation time: 00 hr 15 min 49 sec)
Simulation finished CPU 0 instructions: 50000002 cycles: 236001699 cumulative IPC: 0.2119 (Simulation time: 00 hr 19 min 17 sec)
Simulation complete CPU 0 instructions: 50000002 cycles: 236001699 cumulative IPC: 0.2119 (Simulation time: 00 hr 19 min 17 sec)

ChampSim completed all CPUs

=== Simulation ===
CPU 0 runs traces/473.astar-359B.champsimtrace.xz

Region of Interest Statistics

CPU 0 cumulative IPC: 0.2119 instructions: 50000002 cycles: 236001699
CPU 0 Branch Prediction Accuracy: 93.2% MPKI: 13.43 Average ROB Occupancy at Mispredict: 44.41
Branch type MPKI
BRANCH_DIRECT_JUMP: 0
BRANCH_INDIRECT: 0
BRANCH_CONDITIONAL: 13.42
BRANCH_DIRECT_CALL: 0
BRANCH_INDIRECT_CALL: 0.00054
BRANCH_RETURN: 0

cpu0->cpu0_STLB TOTAL        ACCESS:    1275616 HIT:     889360 MISS:     386256 MSHR_MERGE:          0
cpu0->cpu0_STLB LOAD         ACCESS:    1275616 HIT:     889360 MISS:     386256 MSHR_MERGE:          0
cpu0->cpu0_STLB RFO          ACCESS:          0 HIT:          0 MISS:          0 MSHR_MERGE:          0
cpu0->cpu0_STLB PREFETCH     ACCESS:          0 HIT:          0 MISS:          0 MSHR_MERGE:          0
cpu0->cpu0_STLB WRITE        ACCESS:          0 HIT:          0 MISS:          0 MSHR_MERGE:          0
cpu0->cpu0_STLB TRANSLATION  ACCESS:          0 HIT:          0 MISS:          0 MSHR_MERGE:          0
cpu0->cpu0_STLB PREFETCH REQUESTED:          0 ISSUED:          0 USEFUL:          0 USELESS:          0
cpu0->cpu0_STLB AVERAGE MISS LATENCY: 540.4 cycles
cpu0->cpu0_L2C TOTAL        ACCESS:    6145070 HIT:    2855970 MISS:    3289100 MSHR_MERGE:      72759
cpu0->cpu0_L2C LOAD         ACCESS:    1775437 HIT:     930358 MISS:     845079 MSHR_MERGE:      25368
cpu0->cpu0_L2C RFO          ACCESS:     767634 HIT:      41814 MISS:     725820 MSHR_MERGE:          0
cpu0->cpu0_L2C PREFETCH     ACCESS:    1783717 HIT:     709690 MISS:    1074027 MSHR_MERGE:      47391
cpu0->cpu0_L2C WRITE        ACCESS:    1168864 HIT:    1168342 MISS:        522 MSHR_MERGE:          0
cpu0->cpu0_L2C TRANSLATION  ACCESS:     649418 HIT:       5766 MISS:     643652 MSHR_MERGE:          0
cpu0->cpu0_L2C PREFETCH REQUESTED:    1783717 ISSUED:    1783717 USEFUL:     313482 USELESS:     714447
cpu0->cpu0_L2C AVERAGE MISS LATENCY: 226.8 cycles
cpu0->cpu0_L1I TOTAL        ACCESS:     831944 HIT:     831937 MISS:          7 MSHR_MERGE:          0
cpu0->cpu0_L1I LOAD         ACCESS:     831944 HIT:     831937 MISS:          7 MSHR_MERGE:          0
cpu0->cpu0_L1I RFO          ACCESS:          0 HIT:          0 MISS:          0 MSHR_MERGE:          0
cpu0->cpu0_L1I PREFETCH     ACCESS:          0 HIT:          0 MISS:          0 MSHR_MERGE:          0
cpu0->cpu0_L1I WRITE        ACCESS:          0 HIT:          0 MISS:          0 MSHR_MERGE:          0
cpu0->cpu0_L1I TRANSLATION  ACCESS:          0 HIT:          0 MISS:          0 MSHR_MERGE:          0
cpu0->cpu0_L1I PREFETCH REQUESTED:          0 ISSUED:          0 USEFUL:          0 USELESS:          0
cpu0->cpu0_L1I AVERAGE MISS LATENCY: 129.3 cycles
cpu0->cpu0_L1D TOTAL        ACCESS:   19865703 HIT:   15978856 MISS:    3886847 MSHR_MERGE:     694362
cpu0->cpu0_L1D LOAD         ACCESS:   12774447 HIT:   10398845 MISS:    2375602 MSHR_MERGE:     600169
cpu0->cpu0_L1D RFO          ACCESS:          0 HIT:          0 MISS:          0 MSHR_MERGE:          0
cpu0->cpu0_L1D PREFETCH     ACCESS:          0 HIT:          0 MISS:          0 MSHR_MERGE:          0
cpu0->cpu0_L1D WRITE        ACCESS:    6314503 HIT:    5546768 MISS:     767735 MSHR_MERGE:        101
cpu0->cpu0_L1D TRANSLATION  ACCESS:     776753 HIT:      33243 MISS:     743510 MSHR_MERGE:      94092
cpu0->cpu0_L1D PREFETCH REQUESTED:          0 ISSUED:          0 USEFUL:          0 USELESS:          0
cpu0->cpu0_L1D AVERAGE MISS LATENCY: 167.8 cycles
cpu0->cpu0_ITLB TOTAL        ACCESS:     829870 HIT:     829870 MISS:          0 MSHR_MERGE:          0
cpu0->cpu0_ITLB LOAD         ACCESS:     829870 HIT:     829870 MISS:          0 MSHR_MERGE:          0
cpu0->cpu0_ITLB RFO          ACCESS:          0 HIT:          0 MISS:          0 MSHR_MERGE:          0
cpu0->cpu0_ITLB PREFETCH     ACCESS:          0 HIT:          0 MISS:          0 MSHR_MERGE:          0
cpu0->cpu0_ITLB WRITE        ACCESS:          0 HIT:          0 MISS:          0 MSHR_MERGE:          0
cpu0->cpu0_ITLB TRANSLATION  ACCESS:          0 HIT:          0 MISS:          0 MSHR_MERGE:          0
cpu0->cpu0_ITLB PREFETCH REQUESTED:          0 ISSUED:          0 USEFUL:          0 USELESS:          0
cpu0->cpu0_ITLB AVERAGE MISS LATENCY: - cycles
cpu0->cpu0_DTLB TOTAL        ACCESS:   18156463 HIT:   16276629 MISS:    1879834 MSHR_MERGE:     604218
cpu0->cpu0_DTLB LOAD         ACCESS:   18156463 HIT:   16276629 MISS:    1879834 MSHR_MERGE:     604218
cpu0->cpu0_DTLB RFO          ACCESS:          0 HIT:          0 MISS:          0 MSHR_MERGE:          0
cpu0->cpu0_DTLB PREFETCH     ACCESS:          0 HIT:          0 MISS:          0 MSHR_MERGE:          0
cpu0->cpu0_DTLB WRITE        ACCESS:          0 HIT:          0 MISS:          0 MSHR_MERGE:          0
cpu0->cpu0_DTLB TRANSLATION  ACCESS:          0 HIT:          0 MISS:          0 MSHR_MERGE:          0
cpu0->cpu0_DTLB PREFETCH REQUESTED:          0 ISSUED:          0 USEFUL:          0 USELESS:          0
cpu0->cpu0_DTLB AVERAGE MISS LATENCY: 167.9 cycles
cpu0->LLC TOTAL        ACCESS:    4343859 HIT:    1069165 MISS:    3274694 MSHR_MERGE:          0
cpu0->LLC LOAD         ACCESS:     819711 HIT:     245947 MISS:     573764 MSHR_MERGE:          0
cpu0->LLC RFO          ACCESS:     725819 HIT:     226943 MISS:     498876 MSHR_MERGE:          0
cpu0->LLC PREFETCH     ACCESS:    1026636 HIT:     102702 MISS:     923934 MSHR_MERGE:          0
cpu0->LLC WRITE        ACCESS:    1128041 HIT:     425931 MISS:     702110 MSHR_MERGE:          0
cpu0->LLC TRANSLATION  ACCESS:     643652 HIT:      67642 MISS:     576010 MSHR_MERGE:          0
cpu0->LLC PREFETCH REQUESTED:          0 ISSUED:          0 USEFUL:          0 USELESS:          0
cpu0->LLC AVERAGE MISS LATENCY: 198.9 cycles

DRAM Statistics

Channel 0 RQ ROW_BUFFER_HIT:      66201
  ROW_BUFFER_MISS:    2504336
  AVG DBUS CONGESTED CYCLE: 19.07
Channel 0 WQ ROW_BUFFER_HIT:     128359
  ROW_BUFFER_MISS:     626932
  FULL:          3
Channel 0 REFRESHES ISSUED:      19667
