[VMEM] WARNING: physical memory size is smaller than virtual memory size.
WARNING: option --warmup_instructions is deprecated. Use --warmup-instructions instead.
WARNING: option --simulation_instructions is deprecated. Use --simulation-instructions instead.

*** ChampSim Multicore Out-of-Order Simulator ***
Warmup Instructions: 20000000
Simulation Instructions: 50000000
Number of CPUs: 1
Page size: 8192

Off-chip DRAM Size: 16 GiB Channels: 1 Width: 64-bit Data Rate: 3205 MT/s
Heartbeat CPU 0 instructions: 10000001 cycles: 6886504 heartbeat IPC: 1.452 cumulative IPC: 1.452 (Simulation time: 00 hr 01 min 03 sec)
Heartbeat CPU 0 instructions: 20000001 cycles: 13333159 heartbeat IPC: 1.551 cumulative IPC: 1.5 (Simulation time: 00 hr 02 min 07 sec)
Warmup finished CPU 0 instructions: 20000001 cycles: 13333159 cumulative IPC: 1.5 (Simulation time: 00 hr 02 min 07 sec)
Warmup complete CPU 0 instructions: 20000001 cycles: 13333159 cumulative IPC: 1.5 (Simulation time: 00 hr 02 min 07 sec)
Heartbeat CPU 0 instructions: 30000001 cycles: 62438993 heartbeat IPC: 0.2036 cumulative IPC: 0.2036 (Simulation time: 00 hr 06 min 44 sec)
Heartbeat CPU 0 instructions: 40000002 cycles: 81690796 heartbeat IPC: 0.5194 cumulative IPC: 0.2926 (Simulation time: 00 hr 08 min 42 sec)
Heartbeat CPU 0 instructions: 50000003 cycles: 115728833 heartbeat IPC: 0.2938 cumulative IPC: 0.293 (Simulation time: 00 hr 11 min 58 sec)
Heartbeat CPU 0 instructions: 60000003 cycles: 179911592 heartbeat IPC: 0.1558 cumulative IPC: 0.2401 (Simulation time: 00 hr 17 min 55 sec)
Simulation finished CPU 0 instructions: 50000000 cycles: 199081587 cumulative IPC: 0.2512 (Simulation time: 00 hr 21 min 04 sec)
Simulation complete CPU 0 instructions: 50000000 cycles: 199081587 cumulative IPC: 0.2512 (Simulation time: 00 hr 21 min 04 sec)

ChampSim completed all CPUs

=== Simulation ===
CPU 0 runs traces/429.mcf-217B.champsimtrace.xz

Region of Interest Statistics

CPU 0 cumulative IPC: 0.2512 instructions: 50000000 cycles: 199081587
CPU 0 Branch Prediction Accuracy: 98.95% MPKI: 1.194 Average ROB Occupancy at Mispredict: 125
Branch type MPKI
BRANCH_DIRECT_JUMP: 0
BRANCH_INDIRECT: 0
BRANCH_CONDITIONAL: 1.194
BRANCH_DIRECT_CALL: 0
BRANCH_INDIRECT_CALL: 0
BRANCH_RETURN: 0

cpu0->cpu0_STLB TOTAL        ACCESS:      58323 HIT:      56473 MISS:       1850 MSHR_MERGE:          0
cpu0->cpu0_STLB LOAD         ACCESS:      58323 HIT:      56473 MISS:       1850 MSHR_MERGE:          0
cpu0->cpu0_STLB RFO          ACCESS:          0 HIT:          0 MISS:          0 MSHR_MERGE:          0
cpu0->cpu0_STLB PREFETCH     ACCESS:          0 HIT:          0 MISS:          0 MSHR_MERGE:          0
cpu0->cpu0_STLB WRITE        ACCESS:          0 HIT:          0 MISS:          0 MSHR_MERGE:          0
cpu0->cpu0_STLB TRANSLATION  ACCESS:          0 HIT:          0 MISS:          0 MSHR_MERGE:          0
cpu0->cpu0_STLB PREFETCH REQUESTED:          0 ISSUED:          0 USEFUL:          0 USELESS:          0
cpu0->cpu0_STLB AVERAGE MISS LATENCY: 684.5 cycles
cpu0->cpu0_L2C TOTAL        ACCESS:    2699645 HIT:     117299 MISS:    2582346 MSHR_MERGE:          0
cpu0->cpu0_L2C LOAD         ACCESS:    2598460 HIT:      20089 MISS:    2578371 MSHR_MERGE:          0
cpu0->cpu0_L2C RFO          ACCESS:       1567 HIT:       1355 MISS:        212 MSHR_MERGE:          0
cpu0->cpu0_L2C PREFETCH     ACCESS:          0 HIT:          0 MISS:          0 MSHR_MERGE:          0
cpu0->cpu0_L2C WRITE        ACCESS:      96225 HIT:      95356 MISS:        869 MSHR_MERGE:          0
cpu0->cpu0_L2C TRANSLATION  ACCESS:       3393 HIT:        499 MISS:       2894 MSHR_MERGE:          0
cpu0->cpu0_L2C PREFETCH REQUESTED:          0 ISSUED:          0 USEFUL:          0 USELESS:          0
cpu0->cpu0_L2C AVERAGE MISS LATENCY: 130.5 cycles
cpu0->cpu0_L1I TOTAL        ACCESS:   12191425 HIT:   12191425 MISS:          0 MSHR_MERGE:          0
cpu0->cpu0_L1I LOAD         ACCESS:   12191425 HIT:   12191425 MISS:          0 MSHR_MERGE:          0
cpu0->cpu0_L1I RFO          ACCESS:          0 HIT:          0 MISS:          0 MSHR_MERGE:          0
cpu0->cpu0_L1I PREFETCH     ACCESS:          0 HIT:          0 MISS:          0 MSHR_MERGE:          0
cpu0->cpu0_L1I WRITE        ACCESS:          0 HIT:          0 MISS:          0 MSHR_MERGE:          0
cpu0->cpu0_L1I TRANSLATION  ACCESS:          0 HIT:          0 MISS:          0 MSHR_MERGE:          0
cpu0->cpu0_L1I PREFETCH REQUESTED:          0 ISSUED:          0 USEFUL:          0 USELESS:          0
cpu0->cpu0_L1I AVERAGE MISS LATENCY: - cycles
cpu0->cpu0_L1D TOTAL        ACCESS:   19487518 HIT:   16726260 MISS:    2761258 MSHR_MERGE:     157827
cpu0->cpu0_L1D LOAD         ACCESS:    9125820 HIT:    6371484 MISS:    2754336 MSHR_MERGE:     155865
cpu0->cpu0_L1D RFO          ACCESS:          0 HIT:          0 MISS:          0 MSHR_MERGE:          0
cpu0->cpu0_L1D PREFETCH     ACCESS:          0 HIT:          0 MISS:          0 MSHR_MERGE:          0
cpu0->cpu0_L1D WRITE        ACCESS:   10357991 HIT:   10354462 MISS:       3529 MSHR_MERGE:       1962
cpu0->cpu0_L1D TRANSLATION  ACCESS:       3707 HIT:        314 MISS:       3393 MSHR_MERGE:          0
cpu0->cpu0_L1D PREFETCH REQUESTED:          0 ISSUED:          0 USEFUL:          0 USELESS:          0
cpu0->cpu0_L1D AVERAGE MISS LATENCY: 138.4 cycles
cpu0->cpu0_ITLB TOTAL        ACCESS:   11426594 HIT:   11426594 MISS:          0 MSHR_MERGE:          0
cpu0->cpu0_ITLB LOAD         ACCESS:   11426594 HIT:   11426594 MISS:          0 MSHR_MERGE:          0
cpu0->cpu0_ITLB RFO          ACCESS:          0 HIT:          0 MISS:          0 MSHR_MERGE:          0
cpu0->cpu0_ITLB PREFETCH     ACCESS:          0 HIT:          0 MISS:          0 MSHR_MERGE:          0
cpu0->cpu0_ITLB WRITE        ACCESS:          0 HIT:          0 MISS:          0 MSHR_MERGE:          0
cpu0->cpu0_ITLB TRANSLATION  ACCESS:          0 HIT:          0 MISS:          0 MSHR_MERGE:          0
cpu0->cpu0_ITLB PREFETCH REQUESTED:          0 ISSUED:          0 USEFUL:          0 USELESS:          0
cpu0->cpu0_ITLB AVERAGE MISS LATENCY: - cycles
cpu0->cpu0_DTLB TOTAL        ACCESS:   17297605 HIT:   17219818 MISS:      77787 MSHR_MERGE:      19464
cpu0->cpu0_DTLB LOAD         ACCESS:   17297605 HIT:   17219818 MISS:      77787 MSHR_MERGE:      19464
cpu0->cpu0_DTLB RFO          ACCESS:          0 HIT:          0 MISS:          0 MSHR_MERGE:          0
cpu0->cpu0_DTLB PREFETCH     ACCESS:          0 HIT:          0 MISS:          0 MSHR_MERGE:          0
cpu0->cpu0_DTLB WRITE        ACCESS:          0 HIT:          0 MISS:          0 MSHR_MERGE:          0
cpu0->cpu0_DTLB TRANSLATION  ACCESS:          0 HIT:          0 MISS:          0 MSHR_MERGE:          0
cpu0->cpu0_DTLB PREFETCH REQUESTED:          0 ISSUED:          0 USEFUL:          0 USELESS:          0
cpu0->cpu0_DTLB AVERAGE MISS LATENCY: 25.74 cycles
cpu0->LLC TOTAL        ACCESS:    2661872 HIT:     706869 MISS:    1955003 MSHR_MERGE:          0
cpu0->LLC LOAD         ACCESS:    2578371 HIT:     684394 MISS:    1893977 MSHR_MERGE:          0
cpu0->LLC RFO          ACCESS:        212 HIT:        182 MISS:         30 MSHR_MERGE:          0
cpu0->LLC PREFETCH     ACCESS:          0 HIT:          0 MISS:          0 MSHR_MERGE:          0
cpu0->LLC WRITE        ACCESS:      80395 HIT:      22286 MISS:      58109 MSHR_MERGE:          0
cpu0->LLC TRANSLATION  ACCESS:       2894 HIT:          7 MISS:       2887 MSHR_MERGE:          0
cpu0->LLC PREFETCH REQUESTED:          0 ISSUED:          0 USEFUL:          0 USELESS:          0
cpu0->LLC AVERAGE MISS LATENCY: 150.5 cycles

DRAM Statistics

Channel 0 RQ ROW_BUFFER_HIT:     138549
  ROW_BUFFER_MISS:    1758273
  AVG DBUS CONGESTED CYCLE: 19.27
Channel 0 WQ ROW_BUFFER_HIT:      18025
  ROW_BUFFER_MISS:      58125
  FULL:          0
Channel 0 REFRESHES ISSUED:      16590
