[VMEM] WARNING: physical memory size is smaller than virtual memory size.
WARNING: option --warmup_instructions is deprecated. Use --warmup-instructions instead.
WARNING: option --simulation_instructions is deprecated. Use --simulation-instructions instead.

*** ChampSim Multicore Out-of-Order Simulator ***
Warmup Instructions: 20000000
Simulation Instructions: 50000000
Number of CPUs: 1
Page size: 8192

Off-chip DRAM Size: 16 GiB Channels: 1 Width: 64-bit Data Rate: 3205 MT/s
Heartbeat CPU 0 instructions: 10000000 cycles: 8322305 heartbeat IPC: 1.202 cumulative IPC: 1.202 (Simulation time: 00 hr 02 min 44 sec)
Heartbeat CPU 0 instructions: 20000000 cycles: 15434119 heartbeat IPC: 1.406 cumulative IPC: 1.296 (Simulation time: 00 hr 05 min 19 sec)
Warmup finished CPU 0 instructions: 20000000 cycles: 15434119 cumulative IPC: 1.296 (Simulation time: 00 hr 05 min 19 sec)
Warmup complete CPU 0 instructions: 20000000 cycles: 15434119 cumulative IPC: 1.296 (Simulation time: 00 hr 05 min 19 sec)
Heartbeat CPU 0 instructions: 30000002 cycles: 44455457 heartbeat IPC: 0.3446 cumulative IPC: 0.3446 (Simulation time: 00 hr 11 min 37 sec)
Heartbeat CPU 0 instructions: 40000004 cycles: 73780504 heartbeat IPC: 0.341 cumulative IPC: 0.3428 (Simulation time: 00 hr 17 min 49 sec)
Heartbeat CPU 0 instructions: 50000004 cycles: 102997653 heartbeat IPC: 0.3423 cumulative IPC: 0.3426 (Simulation time: 00 hr 24 min 05 sec)
Heartbeat CPU 0 instructions: 60000007 cycles: 130573971 heartbeat IPC: 0.3626 cumulative IPC: 0.3474 (Simulation time: 00 hr 30 min 05 sec)
Simulation finished CPU 0 instructions: 50000001 cycles: 141909888 cumulative IPC: 0.3523 (Simulation time: 00 hr 35 min 55 sec)
Simulation complete CPU 0 instructions: 50000001 cycles: 141909888 cumulative IPC: 0.3523 (Simulation time: 00 hr 35 min 55 sec)

ChampSim completed all CPUs

=== Simulation ===
CPU 0 runs traces/A2/620.omnetpp_s-874B.champsimtrace.xz

Region of Interest Statistics

CPU 0 cumulative IPC: 0.3523 instructions: 50000001 cycles: 141909888
CPU 0 Branch Prediction Accuracy: 96.16% MPKI: 7.99 Average ROB Occupancy at Mispredict: 52
Branch type MPKI
BRANCH_DIRECT_JUMP: 0.9384
BRANCH_INDIRECT: 0.1208
BRANCH_CONDITIONAL: 5.805
BRANCH_DIRECT_CALL: 0.00236
BRANCH_INDIRECT_CALL: 0.7298
BRANCH_RETURN: 0.3936

cpu0->cpu0_STLB TOTAL        ACCESS:     828596 HIT:     691500 MISS:     137096 MSHR_MERGE:          0
cpu0->cpu0_STLB LOAD         ACCESS:     828596 HIT:     691500 MISS:     137096 MSHR_MERGE:          0
cpu0->cpu0_STLB RFO          ACCESS:          0 HIT:          0 MISS:          0 MSHR_MERGE:          0
cpu0->cpu0_STLB PREFETCH     ACCESS:          0 HIT:          0 MISS:          0 MSHR_MERGE:          0
cpu0->cpu0_STLB WRITE        ACCESS:          0 HIT:          0 MISS:          0 MSHR_MERGE:          0
cpu0->cpu0_STLB TRANSLATION  ACCESS:          0 HIT:          0 MISS:          0 MSHR_MERGE:          0
cpu0->cpu0_STLB PREFETCH REQUESTED:          0 ISSUED:          0 USEFUL:          0 USELESS:          0
cpu0->cpu0_STLB AVERAGE MISS LATENCY: 324.2 cycles
cpu0->cpu0_L2C TOTAL        ACCESS:    1898686 HIT:     858232 MISS:    1040454 MSHR_MERGE:          4
cpu0->cpu0_L2C LOAD         ACCESS:     933817 HIT:     285340 MISS:     648477 MSHR_MERGE:          1
cpu0->cpu0_L2C RFO          ACCESS:     138265 HIT:      31597 MISS:     106668 MSHR_MERGE:          0
cpu0->cpu0_L2C PREFETCH     ACCESS:      27488 HIT:      14507 MISS:      12981 MSHR_MERGE:          3
cpu0->cpu0_L2C WRITE        ACCESS:     505920 HIT:     503621 MISS:       2299 MSHR_MERGE:          0
cpu0->cpu0_L2C TRANSLATION  ACCESS:     293196 HIT:      23167 MISS:     270029 MSHR_MERGE:          0
cpu0->cpu0_L2C PREFETCH REQUESTED:      27488 ISSUED:      27488 USEFUL:       6692 USELESS:       6177
cpu0->cpu0_L2C AVERAGE MISS LATENCY: 137.6 cycles
cpu0->cpu0_L1I TOTAL        ACCESS:    8289049 HIT:    8264072 MISS:      24977 MSHR_MERGE:       6502
cpu0->cpu0_L1I LOAD         ACCESS:    8289049 HIT:    8264072 MISS:      24977 MSHR_MERGE:       6502
cpu0->cpu0_L1I RFO          ACCESS:          0 HIT:          0 MISS:          0 MSHR_MERGE:          0
cpu0->cpu0_L1I PREFETCH     ACCESS:          0 HIT:          0 MISS:          0 MSHR_MERGE:          0
cpu0->cpu0_L1I WRITE        ACCESS:          0 HIT:          0 MISS:          0 MSHR_MERGE:          0
cpu0->cpu0_L1I TRANSLATION  ACCESS:          0 HIT:          0 MISS:          0 MSHR_MERGE:          0
cpu0->cpu0_L1I PREFETCH REQUESTED:          0 ISSUED:          0 USEFUL:          0 USELESS:          0
cpu0->cpu0_L1I AVERAGE MISS LATENCY: 26.98 cycles
cpu0->cpu0_L1D TOTAL        ACCESS:   18832462 HIT:   17025040 MISS:    1807422 MSHR_MERGE:     460612
cpu0->cpu0_L1D LOAD         ACCESS:    9490794 HIT:    8364374 MISS:    1126420 MSHR_MERGE:     211076
cpu0->cpu0_L1D RFO          ACCESS:          0 HIT:          0 MISS:          0 MSHR_MERGE:          0
cpu0->cpu0_L1D PREFETCH     ACCESS:          0 HIT:          0 MISS:          0 MSHR_MERGE:          0
cpu0->cpu0_L1D WRITE        ACCESS:    9040405 HIT:    8652899 MISS:     387506 MSHR_MERGE:     249236
cpu0->cpu0_L1D TRANSLATION  ACCESS:     301263 HIT:       7767 MISS:     293496 MSHR_MERGE:        300
cpu0->cpu0_L1D PREFETCH REQUESTED:          0 ISSUED:          0 USEFUL:          0 USELESS:          0
cpu0->cpu0_L1D AVERAGE MISS LATENCY: 113.5 cycles
cpu0->cpu0_ITLB TOTAL        ACCESS:    7638442 HIT:    7638239 MISS:        203 MSHR_MERGE:         99
cpu0->cpu0_ITLB LOAD         ACCESS:    7638442 HIT:    7638239 MISS:        203 MSHR_MERGE:         99
cpu0->cpu0_ITLB RFO          ACCESS:          0 HIT:          0 MISS:          0 MSHR_MERGE:          0
cpu0->cpu0_ITLB PREFETCH     ACCESS:          0 HIT:          0 MISS:          0 MSHR_MERGE:          0
cpu0->cpu0_ITLB WRITE        ACCESS:          0 HIT:          0 MISS:          0 MSHR_MERGE:          0
cpu0->cpu0_ITLB TRANSLATION  ACCESS:          0 HIT:          0 MISS:          0 MSHR_MERGE:          0
cpu0->cpu0_ITLB PREFETCH REQUESTED:          0 ISSUED:          0 USEFUL:          0 USELESS:          0
cpu0->cpu0_ITLB AVERAGE MISS LATENCY: 193 cycles
cpu0->cpu0_DTLB TOTAL        ACCESS:   17263086 HIT:   16313435 MISS:     949651 MSHR_MERGE:     121158
cpu0->cpu0_DTLB LOAD         ACCESS:   17263086 HIT:   16313435 MISS:     949651 MSHR_MERGE:     121158
cpu0->cpu0_DTLB RFO          ACCESS:          0 HIT:          0 MISS:          0 MSHR_MERGE:          0
cpu0->cpu0_DTLB PREFETCH     ACCESS:          0 HIT:          0 MISS:          0 MSHR_MERGE:          0
cpu0->cpu0_DTLB WRITE        ACCESS:          0 HIT:          0 MISS:          0 MSHR_MERGE:          0
cpu0->cpu0_DTLB TRANSLATION  ACCESS:          0 HIT:          0 MISS:          0 MSHR_MERGE:          0
cpu0->cpu0_DTLB PREFETCH REQUESTED:          0 ISSUED:          0 USEFUL:          0 USELESS:          0
cpu0->cpu0_DTLB AVERAGE MISS LATENCY: 57.79 cycles
cpu0->LLC TOTAL        ACCESS:    1417916 HIT:     337065 MISS:    1080851 MSHR_MERGE:          0
cpu0->LLC LOAD         ACCESS:     648476 HIT:     129961 MISS:     518515 MSHR_MERGE:          0
cpu0->LLC RFO          ACCESS:     106668 HIT:      23573 MISS:      83095 MSHR_MERGE:          0
cpu0->LLC PREFETCH     ACCESS:      12978 HIT:        724 MISS:      12254 MSHR_MERGE:          0
cpu0->LLC WRITE        ACCESS:     379765 HIT:     126350 MISS:     253415 MSHR_MERGE:          0
cpu0->LLC TRANSLATION  ACCESS:     270029 HIT:      56457 MISS:     213572 MSHR_MERGE:          0
cpu0->LLC PREFETCH REQUESTED:          0 ISSUED:          0 USEFUL:          0 USELESS:          0
cpu0->LLC AVERAGE MISS LATENCY: 118.3 cycles

DRAM Statistics

Channel 0 RQ ROW_BUFFER_HIT:      13605
  ROW_BUFFER_MISS:     813787
  AVG DBUS CONGESTED CYCLE: 23.67
Channel 0 WQ ROW_BUFFER_HIT:      74928
  ROW_BUFFER_MISS:     203965
  FULL:          0
Channel 0 REFRESHES ISSUED:      11826
