[VMEM] WARNING: physical memory size is smaller than virtual memory size.
WARNING: option --warmup_instructions is deprecated. Use --warmup-instructions instead.
WARNING: option --simulation_instructions is deprecated. Use --simulation-instructions instead.

*** ChampSim Multicore Out-of-Order Simulator ***
Warmup Instructions: 20000000
Simulation Instructions: 50000000
Number of CPUs: 1
Page size: 8192

Off-chip DRAM Size: 16 GiB Channels: 1 Width: 64-bit Data Rate: 3205 MT/s
Heartbeat CPU 0 instructions: 10000000 cycles: 7362062 heartbeat IPC: 1.358 cumulative IPC: 1.358 (Simulation time: 00 hr 01 min 01 sec)
Heartbeat CPU 0 instructions: 20000001 cycles: 11844057 heartbeat IPC: 2.231 cumulative IPC: 1.689 (Simulation time: 00 hr 01 min 47 sec)
Warmup finished CPU 0 instructions: 20000001 cycles: 11844057 cumulative IPC: 1.689 (Simulation time: 00 hr 01 min 47 sec)
Warmup complete CPU 0 instructions: 20000001 cycles: 11844057 cumulative IPC: 1.689 (Simulation time: 00 hr 01 min 47 sec)
Heartbeat CPU 0 instructions: 30000002 cycles: 59119878 heartbeat IPC: 0.2115 cumulative IPC: 0.2115 (Simulation time: 00 hr 05 min 15 sec)
Heartbeat CPU 0 instructions: 40000005 cycles: 107059347 heartbeat IPC: 0.2086 cumulative IPC: 0.2101 (Simulation time: 00 hr 08 min 57 sec)
Heartbeat CPU 0 instructions: 50000006 cycles: 155128259 heartbeat IPC: 0.208 cumulative IPC: 0.2094 (Simulation time: 00 hr 12 min 44 sec)
Heartbeat CPU 0 instructions: 60000007 cycles: 202622542 heartbeat IPC: 0.2106 cumulative IPC: 0.2097 (Simulation time: 00 hr 16 min 19 sec)
Simulation finished CPU 0 instructions: 50000002 cycles: 239528087 cumulative IPC: 0.2087 (Simulation time: 00 hr 20 min 13 sec)
Simulation complete CPU 0 instructions: 50000002 cycles: 239528087 cumulative IPC: 0.2087 (Simulation time: 00 hr 20 min 13 sec)

ChampSim completed all CPUs

=== Simulation ===
CPU 0 runs traces/473.astar-359B.champsimtrace.xz

Region of Interest Statistics

CPU 0 cumulative IPC: 0.2087 instructions: 50000002 cycles: 239528087
CPU 0 Branch Prediction Accuracy: 93.2% MPKI: 13.43 Average ROB Occupancy at Mispredict: 41.59
Branch type MPKI
BRANCH_DIRECT_JUMP: 0
BRANCH_INDIRECT: 0
BRANCH_CONDITIONAL: 13.42
BRANCH_DIRECT_CALL: 0
BRANCH_INDIRECT_CALL: 0.00054
BRANCH_RETURN: 0

cpu0->cpu0_STLB TOTAL        ACCESS:    1275530 HIT:     889268 MISS:     386262 MSHR_MERGE:          0
cpu0->cpu0_STLB LOAD         ACCESS:    1275530 HIT:     889268 MISS:     386262 MSHR_MERGE:          0
cpu0->cpu0_STLB RFO          ACCESS:          0 HIT:          0 MISS:          0 MSHR_MERGE:          0
cpu0->cpu0_STLB PREFETCH     ACCESS:          0 HIT:          0 MISS:          0 MSHR_MERGE:          0
cpu0->cpu0_STLB WRITE        ACCESS:          0 HIT:          0 MISS:          0 MSHR_MERGE:          0
cpu0->cpu0_STLB TRANSLATION  ACCESS:          0 HIT:          0 MISS:          0 MSHR_MERGE:          0
cpu0->cpu0_STLB PREFETCH REQUESTED:          0 ISSUED:          0 USEFUL:          0 USELESS:          0
cpu0->cpu0_STLB AVERAGE MISS LATENCY: 576.8 cycles
cpu0->cpu0_L2C TOTAL        ACCESS:    6334037 HIT:    2890501 MISS:    3443536 MSHR_MERGE:      87184
cpu0->cpu0_L2C LOAD         ACCESS:    1775433 HIT:     932905 MISS:     842528 MSHR_MERGE:      19688
cpu0->cpu0_L2C RFO          ACCESS:     767630 HIT:      43215 MISS:     724415 MSHR_MERGE:          0
cpu0->cpu0_L2C PREFETCH     ACCESS:    1972026 HIT:     740216 MISS:    1231810 MSHR_MERGE:      67496
cpu0->cpu0_L2C WRITE        ACCESS:    1168857 HIT:    1168465 MISS:        392 MSHR_MERGE:          0
cpu0->cpu0_L2C TRANSLATION  ACCESS:     650091 HIT:       5700 MISS:     644391 MSHR_MERGE:          0
cpu0->cpu0_L2C PREFETCH REQUESTED:    1978927 ISSUED:    1972026 USEFUL:     309291 USELESS:     718550
cpu0->cpu0_L2C AVERAGE MISS LATENCY: 242 cycles
cpu0->cpu0_L1I TOTAL        ACCESS:     946165 HIT:     946158 MISS:          7 MSHR_MERGE:          0
cpu0->cpu0_L1I LOAD         ACCESS:     946165 HIT:     946158 MISS:          7 MSHR_MERGE:          0
cpu0->cpu0_L1I RFO          ACCESS:          0 HIT:          0 MISS:          0 MSHR_MERGE:          0
cpu0->cpu0_L1I PREFETCH     ACCESS:          0 HIT:          0 MISS:          0 MSHR_MERGE:          0
cpu0->cpu0_L1I WRITE        ACCESS:          0 HIT:          0 MISS:          0 MSHR_MERGE:          0
cpu0->cpu0_L1I TRANSLATION  ACCESS:          0 HIT:          0 MISS:          0 MSHR_MERGE:          0
cpu0->cpu0_L1I PREFETCH REQUESTED:          0 ISSUED:          0 USEFUL:          0 USELESS:          0
cpu0->cpu0_L1I AVERAGE MISS LATENCY: 130.6 cycles
cpu0->cpu0_L1D TOTAL        ACCESS:   19847829 HIT:   16002102 MISS:    3845727 MSHR_MERGE:     652578
cpu0->cpu0_L1D LOAD         ACCESS:   12755700 HIT:   10422985 MISS:    2332715 MSHR_MERGE:     557287
cpu0->cpu0_L1D RFO          ACCESS:          0 HIT:          0 MISS:          0 MSHR_MERGE:          0
cpu0->cpu0_L1D PREFETCH     ACCESS:          0 HIT:          0 MISS:          0 MSHR_MERGE:          0
cpu0->cpu0_L1D WRITE        ACCESS:    6314680 HIT:    5546965 MISS:     767715 MSHR_MERGE:         85
cpu0->cpu0_L1D TRANSLATION  ACCESS:     777449 HIT:      32152 MISS:     745297 MSHR_MERGE:      95206
cpu0->cpu0_L1D PREFETCH REQUESTED:          0 ISSUED:          0 USEFUL:          0 USELESS:          0
cpu0->cpu0_L1D AVERAGE MISS LATENCY: 176.9 cycles
cpu0->cpu0_ITLB TOTAL        ACCESS:     924274 HIT:     924274 MISS:          0 MSHR_MERGE:          0
cpu0->cpu0_ITLB LOAD         ACCESS:     924274 HIT:     924274 MISS:          0 MSHR_MERGE:          0
cpu0->cpu0_ITLB RFO          ACCESS:          0 HIT:          0 MISS:          0 MSHR_MERGE:          0
cpu0->cpu0_ITLB PREFETCH     ACCESS:          0 HIT:          0 MISS:          0 MSHR_MERGE:          0
cpu0->cpu0_ITLB WRITE        ACCESS:          0 HIT:          0 MISS:          0 MSHR_MERGE:          0
cpu0->cpu0_ITLB TRANSLATION  ACCESS:          0 HIT:          0 MISS:          0 MSHR_MERGE:          0
cpu0->cpu0_ITLB PREFETCH REQUESTED:          0 ISSUED:          0 USEFUL:          0 USELESS:          0
cpu0->cpu0_ITLB AVERAGE MISS LATENCY: - cycles
cpu0->cpu0_DTLB TOTAL        ACCESS:   18151371 HIT:   16266339 MISS:    1885032 MSHR_MERGE:     609502
cpu0->cpu0_DTLB LOAD         ACCESS:   18151371 HIT:   16266339 MISS:    1885032 MSHR_MERGE:     609502
cpu0->cpu0_DTLB RFO          ACCESS:          0 HIT:          0 MISS:          0 MSHR_MERGE:          0
cpu0->cpu0_DTLB PREFETCH     ACCESS:          0 HIT:          0 MISS:          0 MSHR_MERGE:          0
cpu0->cpu0_DTLB WRITE        ACCESS:          0 HIT:          0 MISS:          0 MSHR_MERGE:          0
cpu0->cpu0_DTLB TRANSLATION  ACCESS:          0 HIT:          0 MISS:          0 MSHR_MERGE:          0
cpu0->cpu0_DTLB PREFETCH REQUESTED:          0 ISSUED:          0 USEFUL:          0 USELESS:          0
cpu0->cpu0_DTLB AVERAGE MISS LATENCY: 179 cycles
cpu0->LLC TOTAL        ACCESS:    4482185 HIT:    1106403 MISS:    3375782 MSHR_MERGE:      23667
cpu0->LLC LOAD         ACCESS:     822840 HIT:     256990 MISS:     565850 MSHR_MERGE:       2010
cpu0->LLC RFO          ACCESS:     724415 HIT:     204223 MISS:     520192 MSHR_MERGE:          0
cpu0->LLC PREFETCH     ACCESS:    1164314 HIT:     191110 MISS:     973204 MSHR_MERGE:      21657
cpu0->LLC WRITE        ACCESS:    1126225 HIT:     388717 MISS:     737508 MSHR_MERGE:          0
cpu0->LLC TRANSLATION  ACCESS:     644391 HIT:      65363 MISS:     579028 MSHR_MERGE:          0
cpu0->LLC PREFETCH REQUESTED:          0 ISSUED:          0 USEFUL:          0 USELESS:          0
cpu0->LLC AVERAGE MISS LATENCY: 209.2 cycles

DRAM Statistics

Channel 0 RQ ROW_BUFFER_HIT:      68789
  ROW_BUFFER_MISS:    2543400
  AVG DBUS CONGESTED CYCLE: 19.11
Channel 0 WQ ROW_BUFFER_HIT:     135526
  ROW_BUFFER_MISS:     657110
  FULL:         18
Channel 0 REFRESHES ISSUED:      19960
