[VMEM] WARNING: physical memory size is smaller than virtual memory size.
WARNING: option --warmup_instructions is deprecated. Use --warmup-instructions instead.
WARNING: option --simulation_instructions is deprecated. Use --simulation-instructions instead.

*** ChampSim Multicore Out-of-Order Simulator ***
Warmup Instructions: 20000000
Simulation Instructions: 50000000
Number of CPUs: 1
Page size: 8192

Off-chip DRAM Size: 16 GiB Channels: 1 Width: 64-bit Data Rate: 3205 MT/s
Heartbeat CPU 0 instructions: 10000002 cycles: 6149935 heartbeat IPC: 1.626 cumulative IPC: 1.626 (Simulation time: 00 hr 01 min 00 sec)
Heartbeat CPU 0 instructions: 20000003 cycles: 12109940 heartbeat IPC: 1.678 cumulative IPC: 1.652 (Simulation time: 00 hr 02 min 03 sec)
Warmup finished CPU 0 instructions: 20000003 cycles: 12109940 cumulative IPC: 1.652 (Simulation time: 00 hr 02 min 03 sec)
Warmup complete CPU 0 instructions: 20000003 cycles: 12109940 cumulative IPC: 1.652 (Simulation time: 00 hr 02 min 03 sec)
Heartbeat CPU 0 instructions: 30000003 cycles: 59781237 heartbeat IPC: 0.2098 cumulative IPC: 0.2098 (Simulation time: 00 hr 06 min 34 sec)
Heartbeat CPU 0 instructions: 40000003 cycles: 77593119 heartbeat IPC: 0.5614 cumulative IPC: 0.3054 (Simulation time: 00 hr 08 min 29 sec)
Heartbeat CPU 0 instructions: 50000003 cycles: 110638778 heartbeat IPC: 0.3026 cumulative IPC: 0.3045 (Simulation time: 00 hr 11 min 43 sec)
Heartbeat CPU 0 instructions: 60000006 cycles: 173059152 heartbeat IPC: 0.1602 cumulative IPC: 0.2485 (Simulation time: 00 hr 17 min 30 sec)
Simulation finished CPU 0 instructions: 50000000 cycles: 192184520 cumulative IPC: 0.2602 (Simulation time: 00 hr 20 min 38 sec)
Simulation complete CPU 0 instructions: 50000000 cycles: 192184520 cumulative IPC: 0.2602 (Simulation time: 00 hr 20 min 38 sec)

ChampSim completed all CPUs

=== Simulation ===
CPU 0 runs traces/429.mcf-217B.champsimtrace.xz

Region of Interest Statistics

CPU 0 cumulative IPC: 0.2602 instructions: 50000000 cycles: 192184520
CPU 0 Branch Prediction Accuracy: 98.95% MPKI: 1.194 Average ROB Occupancy at Mispredict: 122.8
Branch type MPKI
BRANCH_DIRECT_JUMP: 0
BRANCH_INDIRECT: 0
BRANCH_CONDITIONAL: 1.194
BRANCH_DIRECT_CALL: 0
BRANCH_INDIRECT_CALL: 0
BRANCH_RETURN: 0

cpu0->cpu0_STLB TOTAL        ACCESS:      58172 HIT:      56322 MISS:       1850 MSHR_MERGE:          0
cpu0->cpu0_STLB LOAD         ACCESS:      58172 HIT:      56322 MISS:       1850 MSHR_MERGE:          0
cpu0->cpu0_STLB RFO          ACCESS:          0 HIT:          0 MISS:          0 MSHR_MERGE:          0
cpu0->cpu0_STLB PREFETCH     ACCESS:          0 HIT:          0 MISS:          0 MSHR_MERGE:          0
cpu0->cpu0_STLB WRITE        ACCESS:          0 HIT:          0 MISS:          0 MSHR_MERGE:          0
cpu0->cpu0_STLB TRANSLATION  ACCESS:          0 HIT:          0 MISS:          0 MSHR_MERGE:          0
cpu0->cpu0_STLB PREFETCH REQUESTED:          0 ISSUED:          0 USEFUL:          0 USELESS:          0
cpu0->cpu0_STLB AVERAGE MISS LATENCY: 686.8 cycles
cpu0->cpu0_L2C TOTAL        ACCESS:    2699628 HIT:     117068 MISS:    2582560 MSHR_MERGE:          0
cpu0->cpu0_L2C LOAD         ACCESS:    2598465 HIT:      19854 MISS:    2578611 MSHR_MERGE:          0
cpu0->cpu0_L2C RFO          ACCESS:       1568 HIT:       1370 MISS:        198 MSHR_MERGE:          0
cpu0->cpu0_L2C PREFETCH     ACCESS:          0 HIT:          0 MISS:          0 MSHR_MERGE:          0
cpu0->cpu0_L2C WRITE        ACCESS:      96206 HIT:      95346 MISS:        860 MSHR_MERGE:          0
cpu0->cpu0_L2C TRANSLATION  ACCESS:       3389 HIT:        498 MISS:       2891 MSHR_MERGE:          0
cpu0->cpu0_L2C PREFETCH REQUESTED:          0 ISSUED:          0 USEFUL:          0 USELESS:          0
cpu0->cpu0_L2C AVERAGE MISS LATENCY: 130.6 cycles
cpu0->cpu0_L1I TOTAL        ACCESS:    9141230 HIT:    9141230 MISS:          0 MSHR_MERGE:          0
cpu0->cpu0_L1I LOAD         ACCESS:    9141230 HIT:    9141230 MISS:          0 MSHR_MERGE:          0
cpu0->cpu0_L1I RFO          ACCESS:          0 HIT:          0 MISS:          0 MSHR_MERGE:          0
cpu0->cpu0_L1I PREFETCH     ACCESS:          0 HIT:          0 MISS:          0 MSHR_MERGE:          0
cpu0->cpu0_L1I WRITE        ACCESS:          0 HIT:          0 MISS:          0 MSHR_MERGE:          0
cpu0->cpu0_L1I TRANSLATION  ACCESS:          0 HIT:          0 MISS:          0 MSHR_MERGE:          0
cpu0->cpu0_L1I PREFETCH REQUESTED:          0 ISSUED:          0 USEFUL:          0 USELESS:          0
cpu0->cpu0_L1I AVERAGE MISS LATENCY: - cycles
cpu0->cpu0_L1D TOTAL        ACCESS:   16513689 HIT:   13779688 MISS:    2734001 MSHR_MERGE:     130551
cpu0->cpu0_L1D LOAD         ACCESS:    8650240 HIT:    5923454 MISS:    2726786 MSHR_MERGE:     128293
cpu0->cpu0_L1D RFO          ACCESS:          0 HIT:          0 MISS:          0 MSHR_MERGE:          0
cpu0->cpu0_L1D PREFETCH     ACCESS:          0 HIT:          0 MISS:          0 MSHR_MERGE:          0
cpu0->cpu0_L1D WRITE        ACCESS:    7859742 HIT:    7855916 MISS:       3826 MSHR_MERGE:       2258
cpu0->cpu0_L1D TRANSLATION  ACCESS:       3707 HIT:        318 MISS:       3389 MSHR_MERGE:          0
cpu0->cpu0_L1D PREFETCH REQUESTED:          0 ISSUED:          0 USEFUL:          0 USELESS:          0
cpu0->cpu0_L1D AVERAGE MISS LATENCY: 138.5 cycles
cpu0->cpu0_ITLB TOTAL        ACCESS:    7994571 HIT:    7994571 MISS:          0 MSHR_MERGE:          0
cpu0->cpu0_ITLB LOAD         ACCESS:    7994571 HIT:    7994571 MISS:          0 MSHR_MERGE:          0
cpu0->cpu0_ITLB RFO          ACCESS:          0 HIT:          0 MISS:          0 MSHR_MERGE:          0
cpu0->cpu0_ITLB PREFETCH     ACCESS:          0 HIT:          0 MISS:          0 MSHR_MERGE:          0
cpu0->cpu0_ITLB WRITE        ACCESS:          0 HIT:          0 MISS:          0 MSHR_MERGE:          0
cpu0->cpu0_ITLB TRANSLATION  ACCESS:          0 HIT:          0 MISS:          0 MSHR_MERGE:          0
cpu0->cpu0_ITLB PREFETCH REQUESTED:          0 ISSUED:          0 USEFUL:          0 USELESS:          0
cpu0->cpu0_ITLB AVERAGE MISS LATENCY: - cycles
cpu0->cpu0_DTLB TOTAL        ACCESS:   14992368 HIT:   14918542 MISS:      73826 MSHR_MERGE:      15654
cpu0->cpu0_DTLB LOAD         ACCESS:   14992368 HIT:   14918542 MISS:      73826 MSHR_MERGE:      15654
cpu0->cpu0_DTLB RFO          ACCESS:          0 HIT:          0 MISS:          0 MSHR_MERGE:          0
cpu0->cpu0_DTLB PREFETCH     ACCESS:          0 HIT:          0 MISS:          0 MSHR_MERGE:          0
cpu0->cpu0_DTLB WRITE        ACCESS:          0 HIT:          0 MISS:          0 MSHR_MERGE:          0
cpu0->cpu0_DTLB TRANSLATION  ACCESS:          0 HIT:          0 MISS:          0 MSHR_MERGE:          0
cpu0->cpu0_DTLB PREFETCH REQUESTED:          0 ISSUED:          0 USEFUL:          0 USELESS:          0
cpu0->cpu0_DTLB AVERAGE MISS LATENCY: 25.87 cycles
cpu0->LLC TOTAL        ACCESS:    2662216 HIT:     714947 MISS:    1947269 MSHR_MERGE:          0
cpu0->LLC LOAD         ACCESS:    2578611 HIT:     693230 MISS:    1885381 MSHR_MERGE:          0
cpu0->LLC RFO          ACCESS:        198 HIT:        151 MISS:         47 MSHR_MERGE:          0
cpu0->LLC PREFETCH     ACCESS:          0 HIT:          0 MISS:          0 MSHR_MERGE:          0
cpu0->LLC WRITE        ACCESS:      80516 HIT:      21556 MISS:      58960 MSHR_MERGE:          0
cpu0->LLC TRANSLATION  ACCESS:       2891 HIT:         10 MISS:       2881 MSHR_MERGE:          0
cpu0->LLC PREFETCH REQUESTED:          0 ISSUED:          0 USEFUL:          0 USELESS:          0
cpu0->LLC AVERAGE MISS LATENCY: 151.3 cycles

DRAM Statistics

Channel 0 RQ ROW_BUFFER_HIT:     139155
  ROW_BUFFER_MISS:    1749051
  AVG DBUS CONGESTED CYCLE: 19.37
Channel 0 WQ ROW_BUFFER_HIT:      18053
  ROW_BUFFER_MISS:      58076
  FULL:          0
Channel 0 REFRESHES ISSUED:      16015
