[VMEM] WARNING: physical memory size is smaller than virtual memory size.
WARNING: option --warmup_instructions is deprecated. Use --warmup-instructions instead.
WARNING: option --simulation_instructions is deprecated. Use --simulation-instructions instead.

*** ChampSim Multicore Out-of-Order Simulator ***
Warmup Instructions: 20000000
Simulation Instructions: 50000000
Number of CPUs: 1
Page size: 8192

Off-chip DRAM Size: 16 GiB Channels: 1 Width: 64-bit Data Rate: 3205 MT/s
Heartbeat CPU 0 instructions: 10000001 cycles: 4854725 heartbeat IPC: 2.06 cumulative IPC: 2.06 (Simulation time: 00 hr 00 min 49 sec)
Heartbeat CPU 0 instructions: 20000002 cycles: 9649401 heartbeat IPC: 2.086 cumulative IPC: 2.073 (Simulation time: 00 hr 01 min 37 sec)
Warmup finished CPU 0 instructions: 20000002 cycles: 9649401 cumulative IPC: 2.073 (Simulation time: 00 hr 01 min 37 sec)
Warmup complete CPU 0 instructions: 20000002 cycles: 9649401 cumulative IPC: 2.073 (Simulation time: 00 hr 01 min 37 sec)
Heartbeat CPU 0 instructions: 30000005 cycles: 39306836 heartbeat IPC: 0.3372 cumulative IPC: 0.3372 (Simulation time: 00 hr 03 min 50 sec)
Heartbeat CPU 0 instructions: 40000005 cycles: 68610661 heartbeat IPC: 0.3413 cumulative IPC: 0.3392 (Simulation time: 00 hr 06 min 02 sec)
Heartbeat CPU 0 instructions: 50000006 cycles: 98365381 heartbeat IPC: 0.3361 cumulative IPC: 0.3382 (Simulation time: 00 hr 08 min 12 sec)
Heartbeat CPU 0 instructions: 60000007 cycles: 127858825 heartbeat IPC: 0.3391 cumulative IPC: 0.3384 (Simulation time: 00 hr 10 min 04 sec)
Simulation finished CPU 0 instructions: 50000001 cycles: 148054433 cumulative IPC: 0.3377 (Simulation time: 00 hr 11 min 56 sec)
Simulation complete CPU 0 instructions: 50000001 cycles: 148054433 cumulative IPC: 0.3377 (Simulation time: 00 hr 11 min 56 sec)

ChampSim completed all CPUs

=== Simulation ===
CPU 0 runs traces/605.mcf_s-1152B.champsimtrace.xz

Region of Interest Statistics

CPU 0 cumulative IPC: 0.3377 instructions: 50000001 cycles: 148054433
CPU 0 Branch Prediction Accuracy: 90.19% MPKI: 24.48 Average ROB Occupancy at Mispredict: 20.63
Branch type MPKI
BRANCH_DIRECT_JUMP: 0.2057
BRANCH_INDIRECT: 0
BRANCH_CONDITIONAL: 24.27
BRANCH_DIRECT_CALL: 0
BRANCH_INDIRECT_CALL: 0.0036
BRANCH_RETURN: 2e-05

cpu0->cpu0_STLB TOTAL        ACCESS:    1006122 HIT:    1000365 MISS:       5757 MSHR_MERGE:          0
cpu0->cpu0_STLB LOAD         ACCESS:    1006122 HIT:    1000365 MISS:       5757 MSHR_MERGE:          0
cpu0->cpu0_STLB RFO          ACCESS:          0 HIT:          0 MISS:          0 MSHR_MERGE:          0
cpu0->cpu0_STLB PREFETCH     ACCESS:          0 HIT:          0 MISS:          0 MSHR_MERGE:          0
cpu0->cpu0_STLB WRITE        ACCESS:          0 HIT:          0 MISS:          0 MSHR_MERGE:          0
cpu0->cpu0_STLB TRANSLATION  ACCESS:          0 HIT:          0 MISS:          0 MSHR_MERGE:          0
cpu0->cpu0_STLB PREFETCH REQUESTED:          0 ISSUED:          0 USEFUL:          0 USELESS:          0
cpu0->cpu0_STLB AVERAGE MISS LATENCY: 631.6 cycles
cpu0->cpu0_L2C TOTAL        ACCESS:    9331996 HIT:    3550248 MISS:    5781748 MSHR_MERGE:     211946
cpu0->cpu0_L2C LOAD         ACCESS:    2552713 HIT:    1093818 MISS:    1458895 MSHR_MERGE:      40085
cpu0->cpu0_L2C RFO          ACCESS:     187381 HIT:      25083 MISS:     162298 MSHR_MERGE:          0
cpu0->cpu0_L2C PREFETCH     ACCESS:    6317810 HIT:    2167452 MISS:    4150358 MSHR_MERGE:     171861
cpu0->cpu0_L2C WRITE        ACCESS:     265740 HIT:     262465 MISS:       3275 MSHR_MERGE:          0
cpu0->cpu0_L2C TRANSLATION  ACCESS:       8352 HIT:       1430 MISS:       6922 MSHR_MERGE:          0
cpu0->cpu0_L2C PREFETCH REQUESTED:    6318785 ISSUED:    6317813 USEFUL:     825541 USELESS:    3152581
cpu0->cpu0_L2C AVERAGE MISS LATENCY: 56.71 cycles
cpu0->cpu0_L1I TOTAL        ACCESS:     664866 HIT:     664866 MISS:          0 MSHR_MERGE:          0
cpu0->cpu0_L1I LOAD         ACCESS:     664866 HIT:     664866 MISS:          0 MSHR_MERGE:          0
cpu0->cpu0_L1I RFO          ACCESS:          0 HIT:          0 MISS:          0 MSHR_MERGE:          0
cpu0->cpu0_L1I PREFETCH     ACCESS:          0 HIT:          0 MISS:          0 MSHR_MERGE:          0
cpu0->cpu0_L1I WRITE        ACCESS:          0 HIT:          0 MISS:          0 MSHR_MERGE:          0
cpu0->cpu0_L1I TRANSLATION  ACCESS:          0 HIT:          0 MISS:          0 MSHR_MERGE:          0
cpu0->cpu0_L1I PREFETCH REQUESTED:          0 ISSUED:          0 USEFUL:          0 USELESS:          0
cpu0->cpu0_L1I AVERAGE MISS LATENCY: - cycles
cpu0->cpu0_L1D TOTAL        ACCESS:   17987620 HIT:   14388498 MISS:    3599122 MSHR_MERGE:     850673
cpu0->cpu0_L1D LOAD         ACCESS:   12810935 HIT:    9727005 MISS:    3083930 MSHR_MERGE:     531217
cpu0->cpu0_L1D RFO          ACCESS:          0 HIT:          0 MISS:          0 MSHR_MERGE:          0
cpu0->cpu0_L1D PREFETCH     ACCESS:          0 HIT:          0 MISS:          0 MSHR_MERGE:          0
cpu0->cpu0_L1D WRITE        ACCESS:    5165075 HIT:    4658235 MISS:     506840 MSHR_MERGE:     319456
cpu0->cpu0_L1D TRANSLATION  ACCESS:      11610 HIT:       3258 MISS:       8352 MSHR_MERGE:          0
cpu0->cpu0_L1D PREFETCH REQUESTED:          0 ISSUED:          0 USEFUL:          0 USELESS:          0
cpu0->cpu0_L1D AVERAGE MISS LATENCY: 42.98 cycles
cpu0->cpu0_ITLB TOTAL        ACCESS:     612718 HIT:     612718 MISS:          0 MSHR_MERGE:          0
cpu0->cpu0_ITLB LOAD         ACCESS:     612718 HIT:     612718 MISS:          0 MSHR_MERGE:          0
cpu0->cpu0_ITLB RFO          ACCESS:          0 HIT:          0 MISS:          0 MSHR_MERGE:          0
cpu0->cpu0_ITLB PREFETCH     ACCESS:          0 HIT:          0 MISS:          0 MSHR_MERGE:          0
cpu0->cpu0_ITLB WRITE        ACCESS:          0 HIT:          0 MISS:          0 MSHR_MERGE:          0
cpu0->cpu0_ITLB TRANSLATION  ACCESS:          0 HIT:          0 MISS:          0 MSHR_MERGE:          0
cpu0->cpu0_ITLB PREFETCH REQUESTED:          0 ISSUED:          0 USEFUL:          0 USELESS:          0
cpu0->cpu0_ITLB AVERAGE MISS LATENCY: - cycles
cpu0->cpu0_DTLB TOTAL        ACCESS:   16848211 HIT:   15654192 MISS:    1194019 MSHR_MERGE:     187897
cpu0->cpu0_DTLB LOAD         ACCESS:   16848211 HIT:   15654192 MISS:    1194019 MSHR_MERGE:     187897
cpu0->cpu0_DTLB RFO          ACCESS:          0 HIT:          0 MISS:          0 MSHR_MERGE:          0
cpu0->cpu0_DTLB PREFETCH     ACCESS:          0 HIT:          0 MISS:          0 MSHR_MERGE:          0
cpu0->cpu0_DTLB WRITE        ACCESS:          0 HIT:          0 MISS:          0 MSHR_MERGE:          0
cpu0->cpu0_DTLB TRANSLATION  ACCESS:          0 HIT:          0 MISS:          0 MSHR_MERGE:          0
cpu0->cpu0_DTLB PREFETCH REQUESTED:          0 ISSUED:          0 USEFUL:          0 USELESS:          0
cpu0->cpu0_DTLB AVERAGE MISS LATENCY: 7.62 cycles
cpu0->LLC TOTAL        ACCESS:    5787369 HIT:    3271526 MISS:    2515843 MSHR_MERGE:          0
cpu0->LLC LOAD         ACCESS:    1418810 HIT:    1030791 MISS:     388019 MSHR_MERGE:          0
cpu0->LLC RFO          ACCESS:     162298 HIT:     149578 MISS:      12720 MSHR_MERGE:          0
cpu0->LLC PREFETCH     ACCESS:    3978497 HIT:    1885027 MISS:    2093470 MSHR_MERGE:          0
cpu0->LLC WRITE        ACCESS:     220842 HIT:     206111 MISS:      14731 MSHR_MERGE:          0
cpu0->LLC TRANSLATION  ACCESS:       6922 HIT:         19 MISS:       6903 MSHR_MERGE:          0
cpu0->LLC PREFETCH REQUESTED:          0 ISSUED:          0 USEFUL:          0 USELESS:          0
cpu0->LLC AVERAGE MISS LATENCY: 150.9 cycles

DRAM Statistics

Channel 0 RQ ROW_BUFFER_HIT:      87430
  ROW_BUFFER_MISS:    2413516
  AVG DBUS CONGESTED CYCLE: 12.54
Channel 0 WQ ROW_BUFFER_HIT:       5313
  ROW_BUFFER_MISS:      17638
  FULL:          0
Channel 0 REFRESHES ISSUED:      12337
