[VMEM] WARNING: physical memory size is smaller than virtual memory size.
WARNING: option --warmup_instructions is deprecated. Use --warmup-instructions instead.
WARNING: option --simulation_instructions is deprecated. Use --simulation-instructions instead.

*** ChampSim Multicore Out-of-Order Simulator ***
Warmup Instructions: 20000000
Simulation Instructions: 50000000
Number of CPUs: 1
Page size: 8192

Off-chip DRAM Size: 16 GiB Channels: 1 Width: 64-bit Data Rate: 3205 MT/s
Heartbeat CPU 0 instructions: 10000001 cycles: 4632435 heartbeat IPC: 2.159 cumulative IPC: 2.159 (Simulation time: 00 hr 00 min 51 sec)
Heartbeat CPU 0 instructions: 20000002 cycles: 9211707 heartbeat IPC: 2.184 cumulative IPC: 2.171 (Simulation time: 00 hr 01 min 35 sec)
Warmup finished CPU 0 instructions: 20000002 cycles: 9211707 cumulative IPC: 2.171 (Simulation time: 00 hr 01 min 35 sec)
Warmup complete CPU 0 instructions: 20000002 cycles: 9211707 cumulative IPC: 2.171 (Simulation time: 00 hr 01 min 35 sec)
Heartbeat CPU 0 instructions: 30000005 cycles: 33406958 heartbeat IPC: 0.4133 cumulative IPC: 0.4133 (Simulation time: 00 hr 03 min 13 sec)
Heartbeat CPU 0 instructions: 40000005 cycles: 57222309 heartbeat IPC: 0.4199 cumulative IPC: 0.4166 (Simulation time: 00 hr 04 min 53 sec)
Heartbeat CPU 0 instructions: 50000007 cycles: 81433374 heartbeat IPC: 0.413 cumulative IPC: 0.4154 (Simulation time: 00 hr 06 min 28 sec)
Heartbeat CPU 0 instructions: 60000007 cycles: 105242022 heartbeat IPC: 0.42 cumulative IPC: 0.4165 (Simulation time: 00 hr 08 min 04 sec)
Simulation finished CPU 0 instructions: 50000001 cycles: 120344754 cumulative IPC: 0.4155 (Simulation time: 00 hr 09 min 43 sec)
Simulation complete CPU 0 instructions: 50000001 cycles: 120344754 cumulative IPC: 0.4155 (Simulation time: 00 hr 09 min 43 sec)

ChampSim completed all CPUs

=== Simulation ===
CPU 0 runs traces/605.mcf_s-1152B.champsimtrace.xz

Region of Interest Statistics

CPU 0 cumulative IPC: 0.4155 instructions: 50000001 cycles: 120344754
CPU 0 Branch Prediction Accuracy: 90.19% MPKI: 24.48 Average ROB Occupancy at Mispredict: 21.39
Branch type MPKI
BRANCH_DIRECT_JUMP: 0.2057
BRANCH_INDIRECT: 0
BRANCH_CONDITIONAL: 24.27
BRANCH_DIRECT_CALL: 0
BRANCH_INDIRECT_CALL: 0.0036
BRANCH_RETURN: 2e-05

cpu0->cpu0_STLB TOTAL        ACCESS:    1006136 HIT:    1000379 MISS:       5757 MSHR_MERGE:          0
cpu0->cpu0_STLB LOAD         ACCESS:    1006136 HIT:    1000379 MISS:       5757 MSHR_MERGE:          0
cpu0->cpu0_STLB RFO          ACCESS:          0 HIT:          0 MISS:          0 MSHR_MERGE:          0
cpu0->cpu0_STLB PREFETCH     ACCESS:          0 HIT:          0 MISS:          0 MSHR_MERGE:          0
cpu0->cpu0_STLB WRITE        ACCESS:          0 HIT:          0 MISS:          0 MSHR_MERGE:          0
cpu0->cpu0_STLB TRANSLATION  ACCESS:          0 HIT:          0 MISS:          0 MSHR_MERGE:          0
cpu0->cpu0_STLB PREFETCH REQUESTED:          0 ISSUED:          0 USEFUL:          0 USELESS:          0
cpu0->cpu0_STLB AVERAGE MISS LATENCY: 618.2 cycles
cpu0->cpu0_L2C TOTAL        ACCESS:    9262429 HIT:    3454186 MISS:    5808243 MSHR_MERGE:     246823
cpu0->cpu0_L2C LOAD         ACCESS:    2552745 HIT:    1081152 MISS:    1471593 MSHR_MERGE:      49085
cpu0->cpu0_L2C RFO          ACCESS:     187386 HIT:      25354 MISS:     162032 MSHR_MERGE:          5
cpu0->cpu0_L2C PREFETCH     ACCESS:    6248157 HIT:    2083498 MISS:    4164659 MSHR_MERGE:     197733
cpu0->cpu0_L2C WRITE        ACCESS:     265791 HIT:     262752 MISS:       3039 MSHR_MERGE:          0
cpu0->cpu0_L2C TRANSLATION  ACCESS:       8350 HIT:       1430 MISS:       6920 MSHR_MERGE:          0
cpu0->cpu0_L2C PREFETCH REQUESTED:    6249158 ISSUED:    6248157 USEFUL:     820834 USELESS:    3145902
cpu0->cpu0_L2C AVERAGE MISS LATENCY: 34.45 cycles
cpu0->cpu0_L1I TOTAL        ACCESS:     433825 HIT:     433825 MISS:          0 MSHR_MERGE:          0
cpu0->cpu0_L1I LOAD         ACCESS:     433825 HIT:     433825 MISS:          0 MSHR_MERGE:          0
cpu0->cpu0_L1I RFO          ACCESS:          0 HIT:          0 MISS:          0 MSHR_MERGE:          0
cpu0->cpu0_L1I PREFETCH     ACCESS:          0 HIT:          0 MISS:          0 MSHR_MERGE:          0
cpu0->cpu0_L1I WRITE        ACCESS:          0 HIT:          0 MISS:          0 MSHR_MERGE:          0
cpu0->cpu0_L1I TRANSLATION  ACCESS:          0 HIT:          0 MISS:          0 MSHR_MERGE:          0
cpu0->cpu0_L1I PREFETCH REQUESTED:          0 ISSUED:          0 USEFUL:          0 USELESS:          0
cpu0->cpu0_L1I AVERAGE MISS LATENCY: - cycles
cpu0->cpu0_L1D TOTAL        ACCESS:   17979045 HIT:   14394998 MISS:    3584047 MSHR_MERGE:     835559
cpu0->cpu0_L1D LOAD         ACCESS:   12803138 HIT:    9721576 MISS:    3081562 MSHR_MERGE:     528814
cpu0->cpu0_L1D RFO          ACCESS:          0 HIT:          0 MISS:          0 MSHR_MERGE:          0
cpu0->cpu0_L1D PREFETCH     ACCESS:          0 HIT:          0 MISS:          0 MSHR_MERGE:          0
cpu0->cpu0_L1D WRITE        ACCESS:    5164297 HIT:    4670162 MISS:     494135 MSHR_MERGE:     306745
cpu0->cpu0_L1D TRANSLATION  ACCESS:      11610 HIT:       3260 MISS:       8350 MSHR_MERGE:          0
cpu0->cpu0_L1D PREFETCH REQUESTED:          0 ISSUED:          0 USEFUL:          0 USELESS:          0
cpu0->cpu0_L1D AVERAGE MISS LATENCY: 29.46 cycles
cpu0->cpu0_ITLB TOTAL        ACCESS:     402681 HIT:     402681 MISS:          0 MSHR_MERGE:          0
cpu0->cpu0_ITLB LOAD         ACCESS:     402681 HIT:     402681 MISS:          0 MSHR_MERGE:          0
cpu0->cpu0_ITLB RFO          ACCESS:          0 HIT:          0 MISS:          0 MSHR_MERGE:          0
cpu0->cpu0_ITLB PREFETCH     ACCESS:          0 HIT:          0 MISS:          0 MSHR_MERGE:          0
cpu0->cpu0_ITLB WRITE        ACCESS:          0 HIT:          0 MISS:          0 MSHR_MERGE:          0
cpu0->cpu0_ITLB TRANSLATION  ACCESS:          0 HIT:          0 MISS:          0 MSHR_MERGE:          0
cpu0->cpu0_ITLB PREFETCH REQUESTED:          0 ISSUED:          0 USEFUL:          0 USELESS:          0
cpu0->cpu0_ITLB AVERAGE MISS LATENCY: - cycles
cpu0->cpu0_DTLB TOTAL        ACCESS:   16839904 HIT:   15643966 MISS:    1195938 MSHR_MERGE:     189802
cpu0->cpu0_DTLB LOAD         ACCESS:   16839904 HIT:   15643966 MISS:    1195938 MSHR_MERGE:     189802
cpu0->cpu0_DTLB RFO          ACCESS:          0 HIT:          0 MISS:          0 MSHR_MERGE:          0
cpu0->cpu0_DTLB PREFETCH     ACCESS:          0 HIT:          0 MISS:          0 MSHR_MERGE:          0
cpu0->cpu0_DTLB WRITE        ACCESS:          0 HIT:          0 MISS:          0 MSHR_MERGE:          0
cpu0->cpu0_DTLB TRANSLATION  ACCESS:          0 HIT:          0 MISS:          0 MSHR_MERGE:          0
cpu0->cpu0_DTLB PREFETCH REQUESTED:          0 ISSUED:          0 USEFUL:          0 USELESS:          0
cpu0->cpu0_DTLB AVERAGE MISS LATENCY: 7.543 cycles
cpu0->LLC TOTAL        ACCESS:    5779022 HIT:    4336451 MISS:    1442571 MSHR_MERGE:          0
cpu0->LLC LOAD         ACCESS:    1422508 HIT:    1244550 MISS:     177958 MSHR_MERGE:          0
cpu0->LLC RFO          ACCESS:     162027 HIT:     156056 MISS:       5971 MSHR_MERGE:          0
cpu0->LLC PREFETCH     ACCESS:    3966926 HIT:    2718891 MISS:    1248035 MSHR_MERGE:          0
cpu0->LLC WRITE        ACCESS:     220641 HIT:     216869 MISS:       3772 MSHR_MERGE:          0
cpu0->LLC TRANSLATION  ACCESS:       6920 HIT:         85 MISS:       6835 MSHR_MERGE:          0
cpu0->LLC PREFETCH REQUESTED:          0 ISSUED:          0 USEFUL:          0 USELESS:          0
cpu0->LLC AVERAGE MISS LATENCY: 142.1 cycles

DRAM Statistics

Channel 0 RQ ROW_BUFFER_HIT:     228959
  ROW_BUFFER_MISS:    1209715
  AVG DBUS CONGESTED CYCLE: 18.25
Channel 0 WQ ROW_BUFFER_HIT:       3391
  ROW_BUFFER_MISS:       8440
  FULL:          0
Channel 0 REFRESHES ISSUED:      10029
