[VMEM] WARNING: physical memory size is smaller than virtual memory size.
WARNING: option --warmup_instructions is deprecated. Use --warmup-instructions instead.
WARNING: option --simulation_instructions is deprecated. Use --simulation-instructions instead.

*** ChampSim Multicore Out-of-Order Simulator ***
Warmup Instructions: 20000000
Simulation Instructions: 50000000
Number of CPUs: 1
Page size: 8192

Off-chip DRAM Size: 16 GiB Channels: 1 Width: 64-bit Data Rate: 3205 MT/s
Heartbeat CPU 0 instructions: 10000003 cycles: 6086217 heartbeat IPC: 1.643 cumulative IPC: 1.643 (Simulation time: 00 hr 01 min 04 sec)
Warmup finished CPU 0 instructions: 20000002 cycles: 12017076 cumulative IPC: 1.664 (Simulation time: 00 hr 02 min 10 sec)
Warmup complete CPU 0 instructions: 20000002 cycles: 12017076 cumulative IPC: 1.664 (Simulation time: 00 hr 02 min 10 sec)
Heartbeat CPU 0 instructions: 20000005 cycles: 12017099 heartbeat IPC: 1.686 cumulative IPC: 0.1304 (Simulation time: 00 hr 02 min 10 sec)
Heartbeat CPU 0 instructions: 30000008 cycles: 35128336 heartbeat IPC: 0.4327 cumulative IPC: 0.4327 (Simulation time: 00 hr 04 min 50 sec)
Heartbeat CPU 0 instructions: 40000009 cycles: 46077532 heartbeat IPC: 0.9133 cumulative IPC: 0.5872 (Simulation time: 00 hr 06 min 16 sec)
Heartbeat CPU 0 instructions: 50000009 cycles: 63421315 heartbeat IPC: 0.5766 cumulative IPC: 0.5836 (Simulation time: 00 hr 08 min 21 sec)
Heartbeat CPU 0 instructions: 60000010 cycles: 92982000 heartbeat IPC: 0.3383 cumulative IPC: 0.494 (Simulation time: 00 hr 11 min 40 sec)
Simulation finished CPU 0 instructions: 50000000 cycles: 97524646 cumulative IPC: 0.5127 (Simulation time: 00 hr 13 min 39 sec)
Simulation complete CPU 0 instructions: 50000000 cycles: 97524646 cumulative IPC: 0.5127 (Simulation time: 00 hr 13 min 39 sec)

ChampSim completed all CPUs

=== Simulation ===
CPU 0 runs traces/429.mcf-217B.champsimtrace.xz

Region of Interest Statistics

CPU 0 cumulative IPC: 0.5127 instructions: 50000000 cycles: 97524646
CPU 0 Branch Prediction Accuracy: 98.95% MPKI: 1.194 Average ROB Occupancy at Mispredict: 120.8
Branch type MPKI
BRANCH_DIRECT_JUMP: 0
BRANCH_INDIRECT: 0
BRANCH_CONDITIONAL: 1.194
BRANCH_DIRECT_CALL: 0
BRANCH_INDIRECT_CALL: 0
BRANCH_RETURN: 0

cpu0->cpu0_STLB TOTAL        ACCESS:      57959 HIT:      56109 MISS:       1850 MSHR_MERGE:          0
cpu0->cpu0_STLB LOAD         ACCESS:      57959 HIT:      56109 MISS:       1850 MSHR_MERGE:          0
cpu0->cpu0_STLB RFO          ACCESS:          0 HIT:          0 MISS:          0 MSHR_MERGE:          0
cpu0->cpu0_STLB PREFETCH     ACCESS:          0 HIT:          0 MISS:          0 MSHR_MERGE:          0
cpu0->cpu0_STLB WRITE        ACCESS:          0 HIT:          0 MISS:          0 MSHR_MERGE:          0
cpu0->cpu0_STLB TRANSLATION  ACCESS:          0 HIT:          0 MISS:          0 MSHR_MERGE:          0
cpu0->cpu0_STLB PREFETCH REQUESTED:          0 ISSUED:          0 USEFUL:          0 USELESS:          0
cpu0->cpu0_STLB AVERAGE MISS LATENCY: 693.9 cycles
cpu0->cpu0_L2C TOTAL        ACCESS:    9840494 HIT:    5730398 MISS:    4110096 MSHR_MERGE:    1322244
cpu0->cpu0_L2C LOAD         ACCESS:    2598490 HIT:    1831835 MISS:     766655 MSHR_MERGE:     483993
cpu0->cpu0_L2C RFO          ACCESS:       1567 HIT:       1352 MISS:        215 MSHR_MERGE:          0
cpu0->cpu0_L2C PREFETCH     ACCESS:    7140830 HIT:    3801429 MISS:    3339401 MSHR_MERGE:     838251
cpu0->cpu0_L2C WRITE        ACCESS:      96218 HIT:      95290 MISS:        928 MSHR_MERGE:          0
cpu0->cpu0_L2C TRANSLATION  ACCESS:       3389 HIT:        492 MISS:       2897 MSHR_MERGE:          0
cpu0->cpu0_L2C PREFETCH REQUESTED:    7140856 ISSUED:    7140820 USEFUL:    2296386 USELESS:     204611
cpu0->cpu0_L2C AVERAGE MISS LATENCY: 111.3 cycles
cpu0->cpu0_L1I TOTAL        ACCESS:    9429214 HIT:    9429214 MISS:          0 MSHR_MERGE:          0
cpu0->cpu0_L1I LOAD         ACCESS:    9429214 HIT:    9429214 MISS:          0 MSHR_MERGE:          0
cpu0->cpu0_L1I RFO          ACCESS:          0 HIT:          0 MISS:          0 MSHR_MERGE:          0
cpu0->cpu0_L1I PREFETCH     ACCESS:          0 HIT:          0 MISS:          0 MSHR_MERGE:          0
cpu0->cpu0_L1I WRITE        ACCESS:          0 HIT:          0 MISS:          0 MSHR_MERGE:          0
cpu0->cpu0_L1I TRANSLATION  ACCESS:          0 HIT:          0 MISS:          0 MSHR_MERGE:          0
cpu0->cpu0_L1I PREFETCH REQUESTED:          0 ISSUED:          0 USEFUL:          0 USELESS:          0
cpu0->cpu0_L1I AVERAGE MISS LATENCY: - cycles
cpu0->cpu0_L1D TOTAL        ACCESS:   16472333 HIT:   13774875 MISS:    2697458 MSHR_MERGE:      93980
cpu0->cpu0_L1D LOAD         ACCESS:    8596874 HIT:    5906602 MISS:    2690272 MSHR_MERGE:      91750
cpu0->cpu0_L1D RFO          ACCESS:          0 HIT:          0 MISS:          0 MSHR_MERGE:          0
cpu0->cpu0_L1D PREFETCH     ACCESS:          0 HIT:          0 MISS:          0 MSHR_MERGE:          0
cpu0->cpu0_L1D WRITE        ACCESS:    7871752 HIT:    7867955 MISS:       3797 MSHR_MERGE:       2230
cpu0->cpu0_L1D TRANSLATION  ACCESS:       3707 HIT:        318 MISS:       3389 MSHR_MERGE:          0
cpu0->cpu0_L1D PREFETCH REQUESTED:          0 ISSUED:          0 USEFUL:          0 USELESS:          0
cpu0->cpu0_L1D AVERAGE MISS LATENCY: 41.25 cycles
cpu0->cpu0_ITLB TOTAL        ACCESS:    8256646 HIT:    8256646 MISS:          0 MSHR_MERGE:          0
cpu0->cpu0_ITLB LOAD         ACCESS:    8256646 HIT:    8256646 MISS:          0 MSHR_MERGE:          0
cpu0->cpu0_ITLB RFO          ACCESS:          0 HIT:          0 MISS:          0 MSHR_MERGE:          0
cpu0->cpu0_ITLB PREFETCH     ACCESS:          0 HIT:          0 MISS:          0 MSHR_MERGE:          0
cpu0->cpu0_ITLB WRITE        ACCESS:          0 HIT:          0 MISS:          0 MSHR_MERGE:          0
cpu0->cpu0_ITLB TRANSLATION  ACCESS:          0 HIT:          0 MISS:          0 MSHR_MERGE:          0
cpu0->cpu0_ITLB PREFETCH REQUESTED:          0 ISSUED:          0 USEFUL:          0 USELESS:          0
cpu0->cpu0_ITLB AVERAGE MISS LATENCY: - cycles
cpu0->cpu0_DTLB TOTAL        ACCESS:   14947917 HIT:   14874092 MISS:      73825 MSHR_MERGE:      15866
cpu0->cpu0_DTLB LOAD         ACCESS:   14947917 HIT:   14874092 MISS:      73825 MSHR_MERGE:      15866
cpu0->cpu0_DTLB RFO          ACCESS:          0 HIT:          0 MISS:          0 MSHR_MERGE:          0
cpu0->cpu0_DTLB PREFETCH     ACCESS:          0 HIT:          0 MISS:          0 MSHR_MERGE:          0
cpu0->cpu0_DTLB WRITE        ACCESS:          0 HIT:          0 MISS:          0 MSHR_MERGE:          0
cpu0->cpu0_DTLB TRANSLATION  ACCESS:          0 HIT:          0 MISS:          0 MSHR_MERGE:          0
cpu0->cpu0_DTLB PREFETCH REQUESTED:          0 ISSUED:          0 USEFUL:          0 USELESS:          0
cpu0->cpu0_DTLB AVERAGE MISS LATENCY: 26.18 cycles
cpu0->LLC TOTAL        ACCESS:    2867793 HIT:     682996 MISS:    2184797 MSHR_MERGE:          0
cpu0->LLC LOAD         ACCESS:     282662 HIT:      45285 MISS:     237377 MSHR_MERGE:          0
cpu0->LLC RFO          ACCESS:        215 HIT:        185 MISS:         30 MSHR_MERGE:          0
cpu0->LLC PREFETCH     ACCESS:    2501147 HIT:     616331 MISS:    1884816 MSHR_MERGE:          0
cpu0->LLC WRITE        ACCESS:      80872 HIT:      21185 MISS:      59687 MSHR_MERGE:          0
cpu0->LLC TRANSLATION  ACCESS:       2897 HIT:         10 MISS:       2887 MSHR_MERGE:          0
cpu0->LLC PREFETCH REQUESTED:          0 ISSUED:          0 USEFUL:          0 USELESS:          0
cpu0->LLC AVERAGE MISS LATENCY: 127.5 cycles

DRAM Statistics

Channel 0 RQ ROW_BUFFER_HIT:     253395
  ROW_BUFFER_MISS:    1871429
  AVG DBUS CONGESTED CYCLE: 13.65
Channel 0 WQ ROW_BUFFER_HIT:      14344
  ROW_BUFFER_MISS:      61690
  FULL:          0
Channel 0 REFRESHES ISSUED:       8127
