[VMEM] WARNING: physical memory size is smaller than virtual memory size.

*** ChampSim Multicore Out-of-Order Simulator ***
Warmup Instructions: 100000000
Simulation Instructions: 500000000
Number of CPUs: 1
Page size: 4096

Off-chip DRAM Size: 16 GiB Channels: 1 Width: 64-bit Data Rate: 3205 MT/s
Heartbeat CPU 0 instructions: 10000000 cycles: 2973839 heartbeat IPC: 3.363 cumulative IPC: 3.363 (Simulation time: 00 hr 00 min 50 sec)
Heartbeat CPU 0 instructions: 20000000 cycles: 5933688 heartbeat IPC: 3.379 cumulative IPC: 3.371 (Simulation time: 00 hr 01 min 49 sec)
Heartbeat CPU 0 instructions: 30000002 cycles: 8894009 heartbeat IPC: 3.378 cumulative IPC: 3.373 (Simulation time: 00 hr 02 min 43 sec)
Heartbeat CPU 0 instructions: 40000004 cycles: 11853155 heartbeat IPC: 3.379 cumulative IPC: 3.375 (Simulation time: 00 hr 03 min 44 sec)
Heartbeat CPU 0 instructions: 50000004 cycles: 14813534 heartbeat IPC: 3.378 cumulative IPC: 3.375 (Simulation time: 00 hr 04 min 45 sec)
Heartbeat CPU 0 instructions: 60000007 cycles: 17772891 heartbeat IPC: 3.379 cumulative IPC: 3.376 (Simulation time: 00 hr 05 min 47 sec)
Heartbeat CPU 0 instructions: 70000007 cycles: 20732218 heartbeat IPC: 3.379 cumulative IPC: 3.376 (Simulation time: 00 hr 06 min 49 sec)
Heartbeat CPU 0 instructions: 80000010 cycles: 23692930 heartbeat IPC: 3.378 cumulative IPC: 3.377 (Simulation time: 00 hr 07 min 49 sec)
Heartbeat CPU 0 instructions: 90000012 cycles: 26652439 heartbeat IPC: 3.379 cumulative IPC: 3.377 (Simulation time: 00 hr 08 min 47 sec)
Warmup finished CPU 0 instructions: 100000000 cycles: 29611757 cumulative IPC: 3.377 (Simulation time: 00 hr 09 min 47 sec)
Warmup complete CPU 0 instructions: 100000000 cycles: 29611757 cumulative IPC: 3.377 (Simulation time: 00 hr 09 min 47 sec)
Heartbeat CPU 0 instructions: 100000015 cycles: 29611760 heartbeat IPC: 3.379 cumulative IPC: 5 (Simulation time: 00 hr 09 min 47 sec)
Heartbeat CPU 0 instructions: 110000016 cycles: 55049253 heartbeat IPC: 0.3931 cumulative IPC: 0.3931 (Simulation time: 00 hr 15 min 28 sec)
Heartbeat CPU 0 instructions: 120000020 cycles: 80485773 heartbeat IPC: 0.3931 cumulative IPC: 0.3931 (Simulation time: 00 hr 21 min 04 sec)
Heartbeat CPU 0 instructions: 130000020 cycles: 105937945 heartbeat IPC: 0.3929 cumulative IPC: 0.3931 (Simulation time: 00 hr 26 min 39 sec)
Heartbeat CPU 0 instructions: 140000024 cycles: 131383368 heartbeat IPC: 0.393 cumulative IPC: 0.393 (Simulation time: 00 hr 32 min 29 sec)
Heartbeat CPU 0 instructions: 150000024 cycles: 156847790 heartbeat IPC: 0.3927 cumulative IPC: 0.393 (Simulation time: 00 hr 38 min 20 sec)
Heartbeat CPU 0 instructions: 160000028 cycles: 182363155 heartbeat IPC: 0.3919 cumulative IPC: 0.3928 (Simulation time: 00 hr 44 min 12 sec)
Heartbeat CPU 0 instructions: 170000028 cycles: 207788484 heartbeat IPC: 0.3933 cumulative IPC: 0.3929 (Simulation time: 00 hr 55 min 11 sec)
Heartbeat CPU 0 instructions: 180000031 cycles: 233361728 heartbeat IPC: 0.391 cumulative IPC: 0.3926 (Simulation time: 01 hr 07 min 52 sec)
Heartbeat CPU 0 instructions: 190000034 cycles: 258798423 heartbeat IPC: 0.3931 cumulative IPC: 0.3927 (Simulation time: 01 hr 20 min 39 sec)
Heartbeat CPU 0 instructions: 200000035 cycles: 284283105 heartbeat IPC: 0.3924 cumulative IPC: 0.3927 (Simulation time: 01 hr 30 min 34 sec)
Heartbeat CPU 0 instructions: 210000038 cycles: 309738028 heartbeat IPC: 0.3929 cumulative IPC: 0.3927 (Simulation time: 01 hr 40 min 11 sec)
Heartbeat CPU 0 instructions: 220000038 cycles: 335161232 heartbeat IPC: 0.3933 cumulative IPC: 0.3927 (Simulation time: 01 hr 49 min 28 sec)
Heartbeat CPU 0 instructions: 230000038 cycles: 360726679 heartbeat IPC: 0.3912 cumulative IPC: 0.3926 (Simulation time: 01 hr 58 min 39 sec)
Heartbeat CPU 0 instructions: 240000042 cycles: 386147612 heartbeat IPC: 0.3934 cumulative IPC: 0.3927 (Simulation time: 02 hr 07 min 47 sec)
Heartbeat CPU 0 instructions: 250000042 cycles: 411598756 heartbeat IPC: 0.3929 cumulative IPC: 0.3927 (Simulation time: 02 hr 17 min 03 sec)
Heartbeat CPU 0 instructions: 260000046 cycles: 437044149 heartbeat IPC: 0.393 cumulative IPC: 0.3927 (Simulation time: 02 hr 26 min 17 sec)
Heartbeat CPU 0 instructions: 270000046 cycles: 459885125 heartbeat IPC: 0.4378 cumulative IPC: 0.3951 (Simulation time: 02 hr 34 min 18 sec)
Heartbeat CPU 0 instructions: 280000047 cycles: 481039984 heartbeat IPC: 0.4727 cumulative IPC: 0.3987 (Simulation time: 02 hr 41 min 54 sec)
Heartbeat CPU 0 instructions: 290000048 cycles: 506602430 heartbeat IPC: 0.3912 cumulative IPC: 0.3983 (Simulation time: 02 hr 51 min 06 sec)
Heartbeat CPU 0 instructions: 300000052 cycles: 532151210 heartbeat IPC: 0.3914 cumulative IPC: 0.398 (Simulation time: 03 hr 00 min 05 sec)
Heartbeat CPU 0 instructions: 310000052 cycles: 557660567 heartbeat IPC: 0.392 cumulative IPC: 0.3977 (Simulation time: 03 hr 08 min 50 sec)
Heartbeat CPU 0 instructions: 320000056 cycles: 583198709 heartbeat IPC: 0.3916 cumulative IPC: 0.3974 (Simulation time: 03 hr 17 min 44 sec)
Heartbeat CPU 0 instructions: 330000056 cycles: 608793729 heartbeat IPC: 0.3907 cumulative IPC: 0.3971 (Simulation time: 03 hr 26 min 35 sec)
Heartbeat CPU 0 instructions: 340000060 cycles: 634397881 heartbeat IPC: 0.3906 cumulative IPC: 0.3968 (Simulation time: 03 hr 38 min 31 sec)
Heartbeat CPU 0 instructions: 350000064 cycles: 659953099 heartbeat IPC: 0.3913 cumulative IPC: 0.3966 (Simulation time: 03 hr 50 min 38 sec)
Heartbeat CPU 0 instructions: 360000067 cycles: 685467777 heartbeat IPC: 0.3919 cumulative IPC: 0.3964 (Simulation time: 04 hr 02 min 44 sec)
Heartbeat CPU 0 instructions: 370000068 cycles: 710912194 heartbeat IPC: 0.393 cumulative IPC: 0.3963 (Simulation time: 04 hr 14 min 49 sec)
Heartbeat CPU 0 instructions: 380000070 cycles: 736411401 heartbeat IPC: 0.3922 cumulative IPC: 0.3962 (Simulation time: 04 hr 26 min 58 sec)
Heartbeat CPU 0 instructions: 390000072 cycles: 761943211 heartbeat IPC: 0.3917 cumulative IPC: 0.396 (Simulation time: 04 hr 39 min 26 sec)
Heartbeat CPU 0 instructions: 400000075 cycles: 787464180 heartbeat IPC: 0.3918 cumulative IPC: 0.3959 (Simulation time: 04 hr 51 min 50 sec)
Heartbeat CPU 0 instructions: 410000076 cycles: 812984460 heartbeat IPC: 0.3918 cumulative IPC: 0.3957 (Simulation time: 05 hr 00 min 43 sec)
Heartbeat CPU 0 instructions: 420000079 cycles: 838412014 heartbeat IPC: 0.3933 cumulative IPC: 0.3956 (Simulation time: 05 hr 09 min 17 sec)
Heartbeat CPU 0 instructions: 430000079 cycles: 863938670 heartbeat IPC: 0.3917 cumulative IPC: 0.3955 (Simulation time: 05 hr 18 min 05 sec)
Heartbeat CPU 0 instructions: 440000083 cycles: 889455616 heartbeat IPC: 0.3919 cumulative IPC: 0.3954 (Simulation time: 05 hr 26 min 44 sec)
Heartbeat CPU 0 instructions: 450000083 cycles: 914967125 heartbeat IPC: 0.392 cumulative IPC: 0.3953 (Simulation time: 05 hr 35 min 28 sec)
Heartbeat CPU 0 instructions: 460000085 cycles: 940511134 heartbeat IPC: 0.3915 cumulative IPC: 0.3952 (Simulation time: 05 hr 43 min 22 sec)
Heartbeat CPU 0 instructions: 470000086 cycles: 966094533 heartbeat IPC: 0.3909 cumulative IPC: 0.3951 (Simulation time: 05 hr 51 min 10 sec)
Heartbeat CPU 0 instructions: 480000089 cycles: 991570251 heartbeat IPC: 0.3925 cumulative IPC: 0.395 (Simulation time: 05 hr 58 min 55 sec)
Heartbeat CPU 0 instructions: 490000090 cycles: 1017030295 heartbeat IPC: 0.3928 cumulative IPC: 0.395 (Simulation time: 06 hr 08 min 36 sec)
Heartbeat CPU 0 instructions: 500000094 cycles: 1042472670 heartbeat IPC: 0.393 cumulative IPC: 0.3949 (Simulation time: 06 hr 17 min 59 sec)
Heartbeat CPU 0 instructions: 510000098 cycles: 1067985742 heartbeat IPC: 0.392 cumulative IPC: 0.3948 (Simulation time: 06 hr 25 min 46 sec)
Heartbeat CPU 0 instructions: 520000102 cycles: 1093431202 heartbeat IPC: 0.393 cumulative IPC: 0.3948 (Simulation time: 06 hr 32 min 53 sec)
Heartbeat CPU 0 instructions: 530000102 cycles: 1118963502 heartbeat IPC: 0.3917 cumulative IPC: 0.3947 (Simulation time: 06 hr 36 min 41 sec)
Heartbeat CPU 0 instructions: 540000106 cycles: 1144390159 heartbeat IPC: 0.3933 cumulative IPC: 0.3947 (Simulation time: 06 hr 40 min 30 sec)
Heartbeat CPU 0 instructions: 550000106 cycles: 1169850724 heartbeat IPC: 0.3928 cumulative IPC: 0.3947 (Simulation time: 06 hr 44 min 36 sec)
Heartbeat CPU 0 instructions: 560000108 cycles: 1195389213 heartbeat IPC: 0.3916 cumulative IPC: 0.3946 (Simulation time: 06 hr 48 min 35 sec)
Heartbeat CPU 0 instructions: 570000109 cycles: 1220971460 heartbeat IPC: 0.3909 cumulative IPC: 0.3945 (Simulation time: 06 hr 52 min 32 sec)
Heartbeat CPU 0 instructions: 580000112 cycles: 1246504973 heartbeat IPC: 0.3916 cumulative IPC: 0.3944 (Simulation time: 06 hr 56 min 22 sec)
Heartbeat CPU 0 instructions: 590000113 cycles: 1272081187 heartbeat IPC: 0.391 cumulative IPC: 0.3944 (Simulation time: 07 hr 00 min 05 sec)
Simulation finished CPU 0 instructions: 500000003 cycles: 1267965675 cumulative IPC: 0.3943 (Simulation time: 07 hr 03 min 47 sec)
Simulation complete CPU 0 instructions: 500000003 cycles: 1267965675 cumulative IPC: 0.3943 (Simulation time: 07 hr 03 min 47 sec)

ChampSim completed all CPUs

=== Simulation ===
CPU 0 runs traces/T4.xz

Region of Interest Statistics

CPU 0 cumulative IPC: 0.3943 instructions: 500000003 cycles: 1267965675
CPU 0 Branch Prediction Accuracy: 99.63% MPKI: 0.06786 Average ROB Occupancy at Mispredict: 76.51
Branch type MPKI
BRANCH_DIRECT_JUMP: 0.000178
BRANCH_INDIRECT: 0
BRANCH_CONDITIONAL: 0.05161
BRANCH_DIRECT_CALL: 3.2e-05
BRANCH_INDIRECT_CALL: 0
BRANCH_RETURN: 0.01604

cpu0->cpu0_STLB TOTAL        ACCESS:     116434 HIT:      48248 MISS:      68186 MSHR_MERGE:          0
cpu0->cpu0_STLB LOAD         ACCESS:     116434 HIT:      48248 MISS:      68186 MSHR_MERGE:          0
cpu0->cpu0_STLB RFO          ACCESS:          0 HIT:          0 MISS:          0 MSHR_MERGE:          0
cpu0->cpu0_STLB PREFETCH     ACCESS:          0 HIT:          0 MISS:          0 MSHR_MERGE:          0
cpu0->cpu0_STLB WRITE        ACCESS:          0 HIT:          0 MISS:          0 MSHR_MERGE:          0
cpu0->cpu0_STLB TRANSLATION  ACCESS:          0 HIT:          0 MISS:          0 MSHR_MERGE:          0
cpu0->cpu0_STLB PREFETCH REQUESTED:          0 ISSUED:          0 USEFUL:          0 USELESS:          0
cpu0->cpu0_STLB AVERAGE MISS LATENCY: 664 cycles
cpu0->cpu0_L2C TOTAL        ACCESS:   11017708 HIT:    6187690 MISS:    4830018 MSHR_MERGE:          0
cpu0->cpu0_L2C LOAD         ACCESS:    6564966 HIT:    1812642 MISS:    4752324 MSHR_MERGE:          0
cpu0->cpu0_L2C RFO          ACCESS:       9630 HIT:       8994 MISS:        636 MSHR_MERGE:          0
cpu0->cpu0_L2C PREFETCH     ACCESS:          0 HIT:          0 MISS:          0 MSHR_MERGE:          0
cpu0->cpu0_L2C WRITE        ACCESS:    4364157 HIT:    4364157 MISS:          0 MSHR_MERGE:          0
cpu0->cpu0_L2C TRANSLATION  ACCESS:      78955 HIT:       1897 MISS:      77058 MSHR_MERGE:          0
cpu0->cpu0_L2C PREFETCH REQUESTED:          0 ISSUED:          0 USEFUL:          0 USELESS:          0
cpu0->cpu0_L2C AVERAGE MISS LATENCY: 221 cycles
cpu0->cpu0_L1I TOTAL        ACCESS:   93138394 HIT:   93137989 MISS:        405 MSHR_MERGE:        128
cpu0->cpu0_L1I LOAD         ACCESS:   93138394 HIT:   93137989 MISS:        405 MSHR_MERGE:        128
cpu0->cpu0_L1I RFO          ACCESS:          0 HIT:          0 MISS:          0 MSHR_MERGE:          0
cpu0->cpu0_L1I PREFETCH     ACCESS:          0 HIT:          0 MISS:          0 MSHR_MERGE:          0
cpu0->cpu0_L1I WRITE        ACCESS:          0 HIT:          0 MISS:          0 MSHR_MERGE:          0
cpu0->cpu0_L1I TRANSLATION  ACCESS:          0 HIT:          0 MISS:          0 MSHR_MERGE:          0
cpu0->cpu0_L1I PREFETCH REQUESTED:          0 ISSUED:          0 USEFUL:          0 USELESS:          0
cpu0->cpu0_L1I AVERAGE MISS LATENCY: 214.2 cycles
cpu0->cpu0_L1D TOTAL        ACCESS:  158358848 HIT:  130348150 MISS:   28010698 MSHR_MERGE:   21357424
cpu0->cpu0_L1D LOAD         ACCESS:  123017902 HIT:   95116724 MISS:   27901178 MSHR_MERGE:   21336489
cpu0->cpu0_L1D RFO          ACCESS:          0 HIT:          0 MISS:          0 MSHR_MERGE:          0
cpu0->cpu0_L1D PREFETCH     ACCESS:          0 HIT:          0 MISS:          0 MSHR_MERGE:          0
cpu0->cpu0_L1D WRITE        ACCESS:   35204338 HIT:   35173774 MISS:      30564 MSHR_MERGE:      20934
cpu0->cpu0_L1D TRANSLATION  ACCESS:     136608 HIT:      57652 MISS:      78956 MSHR_MERGE:          1
cpu0->cpu0_L1D PREFETCH REQUESTED:          0 ISSUED:          0 USEFUL:          0 USELESS:          0
cpu0->cpu0_L1D AVERAGE MISS LATENCY: 169.1 cycles
cpu0->cpu0_ITLB TOTAL        ACCESS:   75714206 HIT:   75714181 MISS:         25 MSHR_MERGE:         14
cpu0->cpu0_ITLB LOAD         ACCESS:   75714206 HIT:   75714181 MISS:         25 MSHR_MERGE:         14
cpu0->cpu0_ITLB RFO          ACCESS:          0 HIT:          0 MISS:          0 MSHR_MERGE:          0
cpu0->cpu0_ITLB PREFETCH     ACCESS:          0 HIT:          0 MISS:          0 MSHR_MERGE:          0
cpu0->cpu0_ITLB WRITE        ACCESS:          0 HIT:          0 MISS:          0 MSHR_MERGE:          0
cpu0->cpu0_ITLB TRANSLATION  ACCESS:          0 HIT:          0 MISS:          0 MSHR_MERGE:          0
cpu0->cpu0_ITLB PREFETCH REQUESTED:          0 ISSUED:          0 USEFUL:          0 USELESS:          0
cpu0->cpu0_ITLB AVERAGE MISS LATENCY: 840.4 cycles
cpu0->cpu0_DTLB TOTAL        ACCESS:  148312978 HIT:  147874873 MISS:     438105 MSHR_MERGE:     321682
cpu0->cpu0_DTLB LOAD         ACCESS:  148312978 HIT:  147874873 MISS:     438105 MSHR_MERGE:     321682
cpu0->cpu0_DTLB RFO          ACCESS:          0 HIT:          0 MISS:          0 MSHR_MERGE:          0
cpu0->cpu0_DTLB PREFETCH     ACCESS:          0 HIT:          0 MISS:          0 MSHR_MERGE:          0
cpu0->cpu0_DTLB WRITE        ACCESS:          0 HIT:          0 MISS:          0 MSHR_MERGE:          0
cpu0->cpu0_DTLB TRANSLATION  ACCESS:          0 HIT:          0 MISS:          0 MSHR_MERGE:          0
cpu0->cpu0_DTLB PREFETCH REQUESTED:          0 ISSUED:          0 USEFUL:          0 USELESS:          0
cpu0->cpu0_DTLB AVERAGE MISS LATENCY: 394.4 cycles
cpu0->LLC TOTAL        ACCESS:    9185022 HIT:    4674647 MISS:    4510375 MSHR_MERGE:          0
cpu0->LLC LOAD         ACCESS:    4752324 HIT:     320430 MISS:    4431894 MSHR_MERGE:          0
cpu0->LLC RFO          ACCESS:        636 HIT:        617 MISS:         19 MSHR_MERGE:          0
cpu0->LLC PREFETCH     ACCESS:          0 HIT:          0 MISS:          0 MSHR_MERGE:          0
cpu0->LLC WRITE        ACCESS:    4355004 HIT:    4353589 MISS:       1415 MSHR_MERGE:          0
cpu0->LLC TRANSLATION  ACCESS:      77058 HIT:         11 MISS:      77047 MSHR_MERGE:          0
cpu0->LLC PREFETCH REQUESTED:          0 ISSUED:          0 USEFUL:          0 USELESS:          0
cpu0->LLC AVERAGE MISS LATENCY: 219.6 cycles

DRAM Statistics

Channel 0 RQ ROW_BUFFER_HIT:      28445
  ROW_BUFFER_MISS:    4480506
  AVG DBUS CONGESTED CYCLE: 9.844
Channel 0 WQ ROW_BUFFER_HIT:    1762311
  ROW_BUFFER_MISS:    2592175
  FULL:          0
Channel 0 REFRESHES ISSUED:     105664
