[VMEM] WARNING: physical memory size is smaller than virtual memory size.

*** ChampSim Multicore Out-of-Order Simulator ***
Warmup Instructions: 100000000
Simulation Instructions: 500000000
Number of CPUs: 1
Page size: 4096

Off-chip DRAM Size: 16 GiB Channels: 1 Width: 64-bit Data Rate: 3205 MT/s
Heartbeat CPU 0 instructions: 10000001 cycles: 2964776 heartbeat IPC: 3.373 cumulative IPC: 3.373 (Simulation time: 00 hr 01 min 00 sec)
Heartbeat CPU 0 instructions: 20000002 cycles: 5926357 heartbeat IPC: 3.377 cumulative IPC: 3.375 (Simulation time: 00 hr 02 min 09 sec)
Heartbeat CPU 0 instructions: 30000002 cycles: 8882570 heartbeat IPC: 3.383 cumulative IPC: 3.377 (Simulation time: 00 hr 03 min 17 sec)
Heartbeat CPU 0 instructions: 40000005 cycles: 11833114 heartbeat IPC: 3.389 cumulative IPC: 3.38 (Simulation time: 00 hr 04 min 31 sec)
Heartbeat CPU 0 instructions: 50000007 cycles: 14794475 heartbeat IPC: 3.377 cumulative IPC: 3.38 (Simulation time: 00 hr 05 min 44 sec)
Heartbeat CPU 0 instructions: 60000011 cycles: 17679435 heartbeat IPC: 3.466 cumulative IPC: 3.394 (Simulation time: 00 hr 06 min 57 sec)
Heartbeat CPU 0 instructions: 70000011 cycles: 20515169 heartbeat IPC: 3.526 cumulative IPC: 3.412 (Simulation time: 00 hr 08 min 09 sec)
Heartbeat CPU 0 instructions: 80000011 cycles: 23351286 heartbeat IPC: 3.526 cumulative IPC: 3.426 (Simulation time: 00 hr 09 min 20 sec)
Heartbeat CPU 0 instructions: 90000011 cycles: 26188653 heartbeat IPC: 3.524 cumulative IPC: 3.437 (Simulation time: 00 hr 10 min 33 sec)
Warmup finished CPU 0 instructions: 100000003 cycles: 29025216 cumulative IPC: 3.445 (Simulation time: 00 hr 11 min 54 sec)
Warmup complete CPU 0 instructions: 100000003 cycles: 29025216 cumulative IPC: 3.445 (Simulation time: 00 hr 11 min 54 sec)
Heartbeat CPU 0 instructions: 100000013 cycles: 29025218 heartbeat IPC: 3.525 cumulative IPC: 5 (Simulation time: 00 hr 11 min 54 sec)
Heartbeat CPU 0 instructions: 110000014 cycles: 36398292 heartbeat IPC: 1.356 cumulative IPC: 1.356 (Simulation time: 00 hr 14 min 03 sec)
Heartbeat CPU 0 instructions: 120000017 cycles: 43764367 heartbeat IPC: 1.358 cumulative IPC: 1.357 (Simulation time: 00 hr 16 min 08 sec)
Heartbeat CPU 0 instructions: 130000020 cycles: 51160193 heartbeat IPC: 1.352 cumulative IPC: 1.355 (Simulation time: 00 hr 18 min 14 sec)
Heartbeat CPU 0 instructions: 140000022 cycles: 58518799 heartbeat IPC: 1.359 cumulative IPC: 1.356 (Simulation time: 00 hr 20 min 24 sec)
Heartbeat CPU 0 instructions: 150000024 cycles: 65937935 heartbeat IPC: 1.348 cumulative IPC: 1.355 (Simulation time: 00 hr 22 min 32 sec)
Heartbeat CPU 0 instructions: 160000025 cycles: 73166846 heartbeat IPC: 1.383 cumulative IPC: 1.359 (Simulation time: 00 hr 24 min 37 sec)
Heartbeat CPU 0 instructions: 170000025 cycles: 80321793 heartbeat IPC: 1.398 cumulative IPC: 1.365 (Simulation time: 00 hr 26 min 43 sec)
Heartbeat CPU 0 instructions: 180000026 cycles: 87471604 heartbeat IPC: 1.399 cumulative IPC: 1.369 (Simulation time: 00 hr 28 min 49 sec)
Heartbeat CPU 0 instructions: 190000027 cycles: 94679434 heartbeat IPC: 1.387 cumulative IPC: 1.371 (Simulation time: 00 hr 31 min 06 sec)
Heartbeat CPU 0 instructions: 200000027 cycles: 101864498 heartbeat IPC: 1.392 cumulative IPC: 1.373 (Simulation time: 00 hr 33 min 16 sec)
Heartbeat CPU 0 instructions: 210000028 cycles: 109017425 heartbeat IPC: 1.398 cumulative IPC: 1.375 (Simulation time: 00 hr 35 min 32 sec)
Heartbeat CPU 0 instructions: 220000032 cycles: 116263914 heartbeat IPC: 1.38 cumulative IPC: 1.376 (Simulation time: 00 hr 37 min 43 sec)
Heartbeat CPU 0 instructions: 230000032 cycles: 123469269 heartbeat IPC: 1.388 cumulative IPC: 1.376 (Simulation time: 00 hr 39 min 54 sec)
Heartbeat CPU 0 instructions: 240000034 cycles: 130792846 heartbeat IPC: 1.365 cumulative IPC: 1.376 (Simulation time: 00 hr 42 min 05 sec)
Heartbeat CPU 0 instructions: 250000034 cycles: 137947881 heartbeat IPC: 1.398 cumulative IPC: 1.377 (Simulation time: 00 hr 44 min 16 sec)
Heartbeat CPU 0 instructions: 260000037 cycles: 145144317 heartbeat IPC: 1.39 cumulative IPC: 1.378 (Simulation time: 00 hr 47 min 34 sec)
Heartbeat CPU 0 instructions: 270000041 cycles: 152346189 heartbeat IPC: 1.389 cumulative IPC: 1.379 (Simulation time: 00 hr 52 min 19 sec)
Heartbeat CPU 0 instructions: 280000041 cycles: 159525829 heartbeat IPC: 1.393 cumulative IPC: 1.379 (Simulation time: 00 hr 57 min 03 sec)
Heartbeat CPU 0 instructions: 290000041 cycles: 166721370 heartbeat IPC: 1.39 cumulative IPC: 1.38 (Simulation time: 01 hr 01 min 49 sec)
Heartbeat CPU 0 instructions: 300000044 cycles: 173855709 heartbeat IPC: 1.402 cumulative IPC: 1.381 (Simulation time: 01 hr 06 min 37 sec)
Heartbeat CPU 0 instructions: 310000045 cycles: 181056456 heartbeat IPC: 1.389 cumulative IPC: 1.381 (Simulation time: 01 hr 11 min 26 sec)
Heartbeat CPU 0 instructions: 320000048 cycles: 188294352 heartbeat IPC: 1.382 cumulative IPC: 1.381 (Simulation time: 01 hr 16 min 20 sec)
Heartbeat CPU 0 instructions: 330000050 cycles: 195546289 heartbeat IPC: 1.379 cumulative IPC: 1.381 (Simulation time: 01 hr 21 min 15 sec)
Heartbeat CPU 0 instructions: 340000051 cycles: 202851526 heartbeat IPC: 1.369 cumulative IPC: 1.381 (Simulation time: 01 hr 25 min 09 sec)
Heartbeat CPU 0 instructions: 350000052 cycles: 210131278 heartbeat IPC: 1.374 cumulative IPC: 1.38 (Simulation time: 01 hr 28 min 40 sec)
Heartbeat CPU 0 instructions: 360000056 cycles: 217336679 heartbeat IPC: 1.388 cumulative IPC: 1.381 (Simulation time: 01 hr 32 min 29 sec)
Heartbeat CPU 0 instructions: 370000056 cycles: 224528591 heartbeat IPC: 1.39 cumulative IPC: 1.381 (Simulation time: 01 hr 36 min 17 sec)
Heartbeat CPU 0 instructions: 380000057 cycles: 231742590 heartbeat IPC: 1.386 cumulative IPC: 1.381 (Simulation time: 01 hr 39 min 48 sec)
Heartbeat CPU 0 instructions: 390000058 cycles: 238923328 heartbeat IPC: 1.393 cumulative IPC: 1.382 (Simulation time: 01 hr 43 min 17 sec)
Heartbeat CPU 0 instructions: 400000062 cycles: 246106968 heartbeat IPC: 1.392 cumulative IPC: 1.382 (Simulation time: 01 hr 46 min 46 sec)
Heartbeat CPU 0 instructions: 410000066 cycles: 253298653 heartbeat IPC: 1.39 cumulative IPC: 1.382 (Simulation time: 01 hr 50 min 13 sec)
Heartbeat CPU 0 instructions: 420000070 cycles: 260460897 heartbeat IPC: 1.396 cumulative IPC: 1.383 (Simulation time: 01 hr 53 min 39 sec)
Heartbeat CPU 0 instructions: 430000072 cycles: 267780826 heartbeat IPC: 1.366 cumulative IPC: 1.382 (Simulation time: 01 hr 57 min 06 sec)
Heartbeat CPU 0 instructions: 440000074 cycles: 274998361 heartbeat IPC: 1.386 cumulative IPC: 1.382 (Simulation time: 02 hr 00 min 32 sec)
Heartbeat CPU 0 instructions: 450000076 cycles: 282237795 heartbeat IPC: 1.381 cumulative IPC: 1.382 (Simulation time: 02 hr 03 min 57 sec)
Heartbeat CPU 0 instructions: 460000076 cycles: 289413744 heartbeat IPC: 1.394 cumulative IPC: 1.383 (Simulation time: 02 hr 07 min 20 sec)
Heartbeat CPU 0 instructions: 470000080 cycles: 296651839 heartbeat IPC: 1.382 cumulative IPC: 1.383 (Simulation time: 02 hr 10 min 44 sec)
Heartbeat CPU 0 instructions: 480000084 cycles: 303859104 heartbeat IPC: 1.387 cumulative IPC: 1.383 (Simulation time: 02 hr 14 min 19 sec)
Heartbeat CPU 0 instructions: 490000087 cycles: 311076504 heartbeat IPC: 1.386 cumulative IPC: 1.383 (Simulation time: 02 hr 17 min 43 sec)
Heartbeat CPU 0 instructions: 500000089 cycles: 318244629 heartbeat IPC: 1.395 cumulative IPC: 1.383 (Simulation time: 02 hr 21 min 07 sec)
Heartbeat CPU 0 instructions: 510000089 cycles: 325429959 heartbeat IPC: 1.392 cumulative IPC: 1.383 (Simulation time: 02 hr 24 min 45 sec)
Heartbeat CPU 0 instructions: 520000092 cycles: 332815665 heartbeat IPC: 1.354 cumulative IPC: 1.383 (Simulation time: 02 hr 28 min 09 sec)
Heartbeat CPU 0 instructions: 530000094 cycles: 340024438 heartbeat IPC: 1.387 cumulative IPC: 1.383 (Simulation time: 02 hr 31 min 28 sec)
Heartbeat CPU 0 instructions: 540000095 cycles: 347190831 heartbeat IPC: 1.395 cumulative IPC: 1.383 (Simulation time: 02 hr 34 min 52 sec)
Heartbeat CPU 0 instructions: 550000096 cycles: 354427889 heartbeat IPC: 1.382 cumulative IPC: 1.383 (Simulation time: 02 hr 38 min 17 sec)
Heartbeat CPU 0 instructions: 560000096 cycles: 361657232 heartbeat IPC: 1.383 cumulative IPC: 1.383 (Simulation time: 02 hr 41 min 41 sec)
Heartbeat CPU 0 instructions: 570000096 cycles: 368843528 heartbeat IPC: 1.392 cumulative IPC: 1.383 (Simulation time: 02 hr 45 min 05 sec)
Heartbeat CPU 0 instructions: 580000096 cycles: 376050181 heartbeat IPC: 1.388 cumulative IPC: 1.383 (Simulation time: 02 hr 48 min 30 sec)
Heartbeat CPU 0 instructions: 590000096 cycles: 383259367 heartbeat IPC: 1.387 cumulative IPC: 1.383 (Simulation time: 02 hr 51 min 56 sec)
Simulation finished CPU 0 instructions: 500000000 cycles: 361494389 cumulative IPC: 1.383 (Simulation time: 02 hr 55 min 24 sec)
Simulation complete CPU 0 instructions: 500000000 cycles: 361494389 cumulative IPC: 1.383 (Simulation time: 02 hr 55 min 24 sec)

ChampSim completed all CPUs

=== Simulation ===
CPU 0 runs traces/T3.xz

Region of Interest Statistics

CPU 0 cumulative IPC: 1.383 instructions: 500000000 cycles: 361494389
CPU 0 Branch Prediction Accuracy: 99.85% MPKI: 0.001804 Average ROB Occupancy at Mispredict: 276.9
Branch type MPKI
BRANCH_DIRECT_JUMP: 2e-06
BRANCH_INDIRECT: 1e-05
BRANCH_CONDITIONAL: 0.001792
BRANCH_DIRECT_CALL: 0
BRANCH_INDIRECT_CALL: 0
BRANCH_RETURN: 0

cpu0->cpu0_STLB TOTAL        ACCESS:   37705886 HIT:   37645019 MISS:      60867 MSHR_MERGE:          0
cpu0->cpu0_STLB LOAD         ACCESS:   37705886 HIT:   37645019 MISS:      60867 MSHR_MERGE:          0
cpu0->cpu0_STLB RFO          ACCESS:          0 HIT:          0 MISS:          0 MSHR_MERGE:          0
cpu0->cpu0_STLB PREFETCH     ACCESS:          0 HIT:          0 MISS:          0 MSHR_MERGE:          0
cpu0->cpu0_STLB WRITE        ACCESS:          0 HIT:          0 MISS:          0 MSHR_MERGE:          0
cpu0->cpu0_STLB TRANSLATION  ACCESS:          0 HIT:          0 MISS:          0 MSHR_MERGE:          0
cpu0->cpu0_STLB PREFETCH REQUESTED:          0 ISSUED:          0 USEFUL:          0 USELESS:          0
cpu0->cpu0_STLB AVERAGE MISS LATENCY: 547.5 cycles
cpu0->cpu0_L2C TOTAL        ACCESS:   63106151 HIT:   56740679 MISS:    6365472 MSHR_MERGE:          0
cpu0->cpu0_L2C LOAD         ACCESS:   54421067 HIT:   48390777 MISS:    6030290 MSHR_MERGE:          0
cpu0->cpu0_L2C RFO          ACCESS:    4065799 HIT:    3868992 MISS:     196807 MSHR_MERGE:          0
cpu0->cpu0_L2C PREFETCH     ACCESS:          0 HIT:          0 MISS:          0 MSHR_MERGE:          0
cpu0->cpu0_L2C WRITE        ACCESS:    4464234 HIT:    4464225 MISS:          9 MSHR_MERGE:          0
cpu0->cpu0_L2C TRANSLATION  ACCESS:     155051 HIT:      16685 MISS:     138366 MSHR_MERGE:          0
cpu0->cpu0_L2C PREFETCH REQUESTED:          0 ISSUED:          0 USEFUL:          0 USELESS:          0
cpu0->cpu0_L2C AVERAGE MISS LATENCY: 154.1 cycles
cpu0->cpu0_L1I TOTAL        ACCESS:   97303275 HIT:   97303275 MISS:          0 MSHR_MERGE:          0
cpu0->cpu0_L1I LOAD         ACCESS:   97303275 HIT:   97303275 MISS:          0 MSHR_MERGE:          0
cpu0->cpu0_L1I RFO          ACCESS:          0 HIT:          0 MISS:          0 MSHR_MERGE:          0
cpu0->cpu0_L1I PREFETCH     ACCESS:          0 HIT:          0 MISS:          0 MSHR_MERGE:          0
cpu0->cpu0_L1I WRITE        ACCESS:          0 HIT:          0 MISS:          0 MSHR_MERGE:          0
cpu0->cpu0_L1I TRANSLATION  ACCESS:          0 HIT:          0 MISS:          0 MSHR_MERGE:          0
cpu0->cpu0_L1I PREFETCH REQUESTED:          0 ISSUED:          0 USEFUL:          0 USELESS:          0
cpu0->cpu0_L1I AVERAGE MISS LATENCY: - cycles
cpu0->cpu0_L1D TOTAL        ACCESS:  153907345 HIT:   87116751 MISS:   66790594 MSHR_MERGE:    8014444
cpu0->cpu0_L1D LOAD         ACCESS:   96625752 HIT:   34478463 MISS:   62147289 MSHR_MERGE:    7594536
cpu0->cpu0_L1D RFO          ACCESS:          0 HIT:          0 MISS:          0 MSHR_MERGE:          0
cpu0->cpu0_L1D PREFETCH     ACCESS:          0 HIT:          0 MISS:          0 MSHR_MERGE:          0
cpu0->cpu0_L1D WRITE        ACCESS:   57125861 HIT:   52637787 MISS:    4488074 MSHR_MERGE:     419728
cpu0->cpu0_L1D TRANSLATION  ACCESS:     155732 HIT:        501 MISS:     155231 MSHR_MERGE:        180
cpu0->cpu0_L1D PREFETCH REQUESTED:          0 ISSUED:          0 USEFUL:          0 USELESS:          0
cpu0->cpu0_L1D AVERAGE MISS LATENCY: 25.4 cycles
cpu0->cpu0_ITLB TOTAL        ACCESS:   78377198 HIT:   78377198 MISS:          0 MSHR_MERGE:          0
cpu0->cpu0_ITLB LOAD         ACCESS:   78377198 HIT:   78377198 MISS:          0 MSHR_MERGE:          0
cpu0->cpu0_ITLB RFO          ACCESS:          0 HIT:          0 MISS:          0 MSHR_MERGE:          0
cpu0->cpu0_ITLB PREFETCH     ACCESS:          0 HIT:          0 MISS:          0 MSHR_MERGE:          0
cpu0->cpu0_ITLB WRITE        ACCESS:          0 HIT:          0 MISS:          0 MSHR_MERGE:          0
cpu0->cpu0_ITLB TRANSLATION  ACCESS:          0 HIT:          0 MISS:          0 MSHR_MERGE:          0
cpu0->cpu0_ITLB PREFETCH REQUESTED:          0 ISSUED:          0 USEFUL:          0 USELESS:          0
cpu0->cpu0_ITLB AVERAGE MISS LATENCY: - cycles
cpu0->cpu0_DTLB TOTAL        ACCESS:  142242983 HIT:   91468073 MISS:   50774910 MSHR_MERGE:   13069024
cpu0->cpu0_DTLB LOAD         ACCESS:  142242983 HIT:   91468073 MISS:   50774910 MSHR_MERGE:   13069024
cpu0->cpu0_DTLB RFO          ACCESS:          0 HIT:          0 MISS:          0 MSHR_MERGE:          0
cpu0->cpu0_DTLB PREFETCH     ACCESS:          0 HIT:          0 MISS:          0 MSHR_MERGE:          0
cpu0->cpu0_DTLB WRITE        ACCESS:          0 HIT:          0 MISS:          0 MSHR_MERGE:          0
cpu0->cpu0_DTLB TRANSLATION  ACCESS:          0 HIT:          0 MISS:          0 MSHR_MERGE:          0
cpu0->cpu0_DTLB PREFETCH REQUESTED:          0 ISSUED:          0 USEFUL:          0 USELESS:          0
cpu0->cpu0_DTLB AVERAGE MISS LATENCY: 5.927 cycles
cpu0->LLC TOTAL        ACCESS:    6981615 HIT:    3043115 MISS:    3938500 MSHR_MERGE:          0
cpu0->LLC LOAD         ACCESS:    6030285 HIT:    2186316 MISS:    3843969 MSHR_MERGE:          0
cpu0->LLC RFO          ACCESS:     194882 HIT:     194882 MISS:          0 MSHR_MERGE:          0
cpu0->LLC PREFETCH     ACCESS:          0 HIT:          0 MISS:          0 MSHR_MERGE:          0
cpu0->LLC WRITE        ACCESS:     618082 HIT:     617762 MISS:        320 MSHR_MERGE:          0
cpu0->LLC TRANSLATION  ACCESS:     138366 HIT:      44155 MISS:      94211 MSHR_MERGE:          0
cpu0->LLC PREFETCH REQUESTED:          0 ISSUED:          0 USEFUL:          0 USELESS:          0
cpu0->LLC AVERAGE MISS LATENCY: 223.9 cycles

DRAM Statistics

Channel 0 RQ ROW_BUFFER_HIT:         96
  ROW_BUFFER_MISS:    3938084
  AVG DBUS CONGESTED CYCLE: 5.264
Channel 0 WQ ROW_BUFFER_HIT:      58302
  ROW_BUFFER_MISS:     419687
  FULL:          0
Channel 0 REFRESHES ISSUED:      30125
