[VMEM] WARNING: physical memory size is smaller than virtual memory size.

*** ChampSim Multicore Out-of-Order Simulator ***
Warmup Instructions: 100000000
Simulation Instructions: 500000000
Number of CPUs: 1
Page size: 4096

Off-chip DRAM Size: 16 GiB Channels: 1 Width: 64-bit Data Rate: 3205 MT/s
Heartbeat CPU 0 instructions: 10000002 cycles: 3193121 heartbeat IPC: 3.132 cumulative IPC: 3.132 (Simulation time: 00 hr 00 min 54 sec)
Heartbeat CPU 0 instructions: 20000002 cycles: 6302189 heartbeat IPC: 3.216 cumulative IPC: 3.174 (Simulation time: 00 hr 01 min 56 sec)
Heartbeat CPU 0 instructions: 30000006 cycles: 9391814 heartbeat IPC: 3.237 cumulative IPC: 3.194 (Simulation time: 00 hr 02 min 54 sec)
Heartbeat CPU 0 instructions: 40000007 cycles: 12495064 heartbeat IPC: 3.222 cumulative IPC: 3.201 (Simulation time: 00 hr 03 min 59 sec)
Heartbeat CPU 0 instructions: 50000010 cycles: 15572293 heartbeat IPC: 3.25 cumulative IPC: 3.211 (Simulation time: 00 hr 05 min 02 sec)
Heartbeat CPU 0 instructions: 60000010 cycles: 18680547 heartbeat IPC: 3.217 cumulative IPC: 3.212 (Simulation time: 00 hr 06 min 07 sec)
Heartbeat CPU 0 instructions: 70000013 cycles: 21766084 heartbeat IPC: 3.241 cumulative IPC: 3.216 (Simulation time: 00 hr 07 min 11 sec)
Heartbeat CPU 0 instructions: 80000017 cycles: 24868124 heartbeat IPC: 3.224 cumulative IPC: 3.217 (Simulation time: 00 hr 08 min 14 sec)
Heartbeat CPU 0 instructions: 90000019 cycles: 27951252 heartbeat IPC: 3.243 cumulative IPC: 3.22 (Simulation time: 00 hr 09 min 17 sec)
Warmup finished CPU 0 instructions: 100000004 cycles: 30942378 cumulative IPC: 3.232 (Simulation time: 00 hr 10 min 17 sec)
Warmup complete CPU 0 instructions: 100000004 cycles: 30942378 cumulative IPC: 3.232 (Simulation time: 00 hr 10 min 17 sec)
Heartbeat CPU 0 instructions: 100000019 cycles: 30942381 heartbeat IPC: 3.343 cumulative IPC: 5 (Simulation time: 00 hr 10 min 17 sec)
Heartbeat CPU 0 instructions: 110000019 cycles: 59388793 heartbeat IPC: 0.3515 cumulative IPC: 0.3515 (Simulation time: 00 hr 14 min 26 sec)
Heartbeat CPU 0 instructions: 120000019 cycles: 87412419 heartbeat IPC: 0.3568 cumulative IPC: 0.3542 (Simulation time: 00 hr 18 min 22 sec)
Heartbeat CPU 0 instructions: 130000019 cycles: 115219483 heartbeat IPC: 0.3596 cumulative IPC: 0.356 (Simulation time: 00 hr 22 min 19 sec)
Heartbeat CPU 0 instructions: 140000020 cycles: 143801474 heartbeat IPC: 0.3499 cumulative IPC: 0.3544 (Simulation time: 00 hr 26 min 21 sec)
Heartbeat CPU 0 instructions: 150000022 cycles: 171746640 heartbeat IPC: 0.3578 cumulative IPC: 0.3551 (Simulation time: 00 hr 30 min 27 sec)
Heartbeat CPU 0 instructions: 160000023 cycles: 198913288 heartbeat IPC: 0.3681 cumulative IPC: 0.3572 (Simulation time: 00 hr 34 min 27 sec)
Heartbeat CPU 0 instructions: 170000025 cycles: 227435301 heartbeat IPC: 0.3506 cumulative IPC: 0.3562 (Simulation time: 00 hr 38 min 36 sec)
Heartbeat CPU 0 instructions: 180000026 cycles: 254680399 heartbeat IPC: 0.367 cumulative IPC: 0.3576 (Simulation time: 00 hr 42 min 34 sec)
Heartbeat CPU 0 instructions: 190000026 cycles: 282901351 heartbeat IPC: 0.3543 cumulative IPC: 0.3572 (Simulation time: 00 hr 48 min 08 sec)
Heartbeat CPU 0 instructions: 200000028 cycles: 311252119 heartbeat IPC: 0.3527 cumulative IPC: 0.3567 (Simulation time: 00 hr 57 min 08 sec)
Heartbeat CPU 0 instructions: 210000030 cycles: 339568476 heartbeat IPC: 0.3532 cumulative IPC: 0.3564 (Simulation time: 01 hr 06 min 12 sec)
Heartbeat CPU 0 instructions: 220000030 cycles: 366697073 heartbeat IPC: 0.3686 cumulative IPC: 0.3574 (Simulation time: 01 hr 15 min 01 sec)
Heartbeat CPU 0 instructions: 230000030 cycles: 395632834 heartbeat IPC: 0.3456 cumulative IPC: 0.3565 (Simulation time: 01 hr 23 min 56 sec)
Heartbeat CPU 0 instructions: 240000033 cycles: 421530654 heartbeat IPC: 0.3861 cumulative IPC: 0.3584 (Simulation time: 01 hr 30 min 08 sec)
Heartbeat CPU 0 instructions: 250000036 cycles: 448373110 heartbeat IPC: 0.3725 cumulative IPC: 0.3593 (Simulation time: 01 hr 36 min 47 sec)
Heartbeat CPU 0 instructions: 260000036 cycles: 475366246 heartbeat IPC: 0.3705 cumulative IPC: 0.36 (Simulation time: 01 hr 43 min 09 sec)
Heartbeat CPU 0 instructions: 270000040 cycles: 502368663 heartbeat IPC: 0.3703 cumulative IPC: 0.3606 (Simulation time: 01 hr 49 min 30 sec)
Heartbeat CPU 0 instructions: 280000040 cycles: 529324839 heartbeat IPC: 0.371 cumulative IPC: 0.3612 (Simulation time: 01 hr 55 min 49 sec)
Heartbeat CPU 0 instructions: 290000040 cycles: 555035380 heartbeat IPC: 0.3889 cumulative IPC: 0.3625 (Simulation time: 02 hr 01 min 50 sec)
Heartbeat CPU 0 instructions: 300000043 cycles: 580967735 heartbeat IPC: 0.3856 cumulative IPC: 0.3636 (Simulation time: 02 hr 07 min 56 sec)
Heartbeat CPU 0 instructions: 310000044 cycles: 604552460 heartbeat IPC: 0.424 cumulative IPC: 0.3661 (Simulation time: 02 hr 13 min 44 sec)
Heartbeat CPU 0 instructions: 320000045 cycles: 629916988 heartbeat IPC: 0.3943 cumulative IPC: 0.3673 (Simulation time: 02 hr 19 min 44 sec)
Heartbeat CPU 0 instructions: 330000045 cycles: 654975053 heartbeat IPC: 0.3991 cumulative IPC: 0.3686 (Simulation time: 02 hr 25 min 46 sec)
Heartbeat CPU 0 instructions: 340000048 cycles: 679842325 heartbeat IPC: 0.4021 cumulative IPC: 0.3699 (Simulation time: 02 hr 31 min 29 sec)
Heartbeat CPU 0 instructions: 350000048 cycles: 704844936 heartbeat IPC: 0.4 cumulative IPC: 0.371 (Simulation time: 02 hr 37 min 24 sec)
Heartbeat CPU 0 instructions: 360000049 cycles: 729372890 heartbeat IPC: 0.4077 cumulative IPC: 0.3723 (Simulation time: 02 hr 43 min 13 sec)
Heartbeat CPU 0 instructions: 370000052 cycles: 753658377 heartbeat IPC: 0.4118 cumulative IPC: 0.3736 (Simulation time: 02 hr 48 min 59 sec)
Heartbeat CPU 0 instructions: 380000052 cycles: 778681891 heartbeat IPC: 0.3996 cumulative IPC: 0.3745 (Simulation time: 02 hr 54 min 55 sec)
Heartbeat CPU 0 instructions: 390000053 cycles: 803628945 heartbeat IPC: 0.4008 cumulative IPC: 0.3753 (Simulation time: 03 hr 00 min 33 sec)
Heartbeat CPU 0 instructions: 400000054 cycles: 828636043 heartbeat IPC: 0.3999 cumulative IPC: 0.3761 (Simulation time: 03 hr 06 min 10 sec)
Heartbeat CPU 0 instructions: 410000056 cycles: 853662218 heartbeat IPC: 0.3996 cumulative IPC: 0.3768 (Simulation time: 03 hr 11 min 53 sec)
Heartbeat CPU 0 instructions: 420000059 cycles: 878552917 heartbeat IPC: 0.4018 cumulative IPC: 0.3775 (Simulation time: 03 hr 17 min 35 sec)
Heartbeat CPU 0 instructions: 430000060 cycles: 903596975 heartbeat IPC: 0.3993 cumulative IPC: 0.3782 (Simulation time: 03 hr 23 min 21 sec)
Heartbeat CPU 0 instructions: 440000061 cycles: 928432815 heartbeat IPC: 0.4026 cumulative IPC: 0.3788 (Simulation time: 03 hr 29 min 53 sec)
Heartbeat CPU 0 instructions: 450000065 cycles: 954000405 heartbeat IPC: 0.3911 cumulative IPC: 0.3792 (Simulation time: 03 hr 37 min 41 sec)
Heartbeat CPU 0 instructions: 460000065 cycles: 980085008 heartbeat IPC: 0.3834 cumulative IPC: 0.3793 (Simulation time: 03 hr 45 min 43 sec)
Heartbeat CPU 0 instructions: 470000066 cycles: 1007820676 heartbeat IPC: 0.3605 cumulative IPC: 0.3788 (Simulation time: 03 hr 54 min 15 sec)
Heartbeat CPU 0 instructions: 480000070 cycles: 1034712867 heartbeat IPC: 0.3719 cumulative IPC: 0.3786 (Simulation time: 04 hr 02 min 32 sec)
Heartbeat CPU 0 instructions: 490000070 cycles: 1061607794 heartbeat IPC: 0.3718 cumulative IPC: 0.3784 (Simulation time: 04 hr 10 min 44 sec)
Heartbeat CPU 0 instructions: 500000071 cycles: 1089692665 heartbeat IPC: 0.3561 cumulative IPC: 0.3778 (Simulation time: 04 hr 19 min 23 sec)
Heartbeat CPU 0 instructions: 510000073 cycles: 1116511950 heartbeat IPC: 0.3729 cumulative IPC: 0.3777 (Simulation time: 04 hr 27 min 47 sec)
Heartbeat CPU 0 instructions: 520000074 cycles: 1143418739 heartbeat IPC: 0.3717 cumulative IPC: 0.3775 (Simulation time: 04 hr 36 min 20 sec)
Heartbeat CPU 0 instructions: 530000074 cycles: 1171541153 heartbeat IPC: 0.3556 cumulative IPC: 0.377 (Simulation time: 04 hr 45 min 10 sec)
Heartbeat CPU 0 instructions: 540000074 cycles: 1198770571 heartbeat IPC: 0.3672 cumulative IPC: 0.3768 (Simulation time: 04 hr 53 min 22 sec)
Heartbeat CPU 0 instructions: 550000077 cycles: 1227109127 heartbeat IPC: 0.3529 cumulative IPC: 0.3762 (Simulation time: 04 hr 59 min 31 sec)
Heartbeat CPU 0 instructions: 560000077 cycles: 1255510485 heartbeat IPC: 0.3521 cumulative IPC: 0.3756 (Simulation time: 05 hr 05 min 35 sec)
Heartbeat CPU 0 instructions: 570000078 cycles: 1294646503 heartbeat IPC: 0.2555 cumulative IPC: 0.3719 (Simulation time: 05 hr 14 min 07 sec)
Heartbeat CPU 0 instructions: 580000079 cycles: 1326573612 heartbeat IPC: 0.3132 cumulative IPC: 0.3705 (Simulation time: 05 hr 21 min 04 sec)
Heartbeat CPU 0 instructions: 590000081 cycles: 1359495818 heartbeat IPC: 0.3037 cumulative IPC: 0.3688 (Simulation time: 05 hr 28 min 01 sec)
Simulation finished CPU 0 instructions: 500000000 cycles: 1360652565 cumulative IPC: 0.3675 (Simulation time: 05 hr 34 min 56 sec)
Simulation complete CPU 0 instructions: 500000000 cycles: 1360652565 cumulative IPC: 0.3675 (Simulation time: 05 hr 34 min 56 sec)

ChampSim completed all CPUs

=== Simulation ===
CPU 0 runs traces/T2.xz

Region of Interest Statistics

CPU 0 cumulative IPC: 0.3675 instructions: 500000000 cycles: 1360652565
CPU 0 Branch Prediction Accuracy: 87.05% MPKI: 32.06 Average ROB Occupancy at Mispredict: 15.31
Branch type MPKI
BRANCH_DIRECT_JUMP: 0.2882
BRANCH_INDIRECT: 0
BRANCH_CONDITIONAL: 31.77
BRANCH_DIRECT_CALL: 0
BRANCH_INDIRECT_CALL: 0.000158
BRANCH_RETURN: 0

cpu0->cpu0_STLB TOTAL        ACCESS:    7001523 HIT:    6910115 MISS:      91408 MSHR_MERGE:          0
cpu0->cpu0_STLB LOAD         ACCESS:    7001523 HIT:    6910115 MISS:      91408 MSHR_MERGE:          0
cpu0->cpu0_STLB RFO          ACCESS:          0 HIT:          0 MISS:          0 MSHR_MERGE:          0
cpu0->cpu0_STLB PREFETCH     ACCESS:          0 HIT:          0 MISS:          0 MSHR_MERGE:          0
cpu0->cpu0_STLB WRITE        ACCESS:          0 HIT:          0 MISS:          0 MSHR_MERGE:          0
cpu0->cpu0_STLB TRANSLATION  ACCESS:          0 HIT:          0 MISS:          0 MSHR_MERGE:          0
cpu0->cpu0_STLB PREFETCH REQUESTED:          0 ISSUED:          0 USEFUL:          0 USELESS:          0
cpu0->cpu0_STLB AVERAGE MISS LATENCY: 462.4 cycles
cpu0->cpu0_L2C TOTAL        ACCESS:   20183634 HIT:    9637605 MISS:   10546029 MSHR_MERGE:          0
cpu0->cpu0_L2C LOAD         ACCESS:   15363431 HIT:    5742302 MISS:    9621129 MSHR_MERGE:          0
cpu0->cpu0_L2C RFO          ACCESS:    1902566 HIT:    1112963 MISS:     789603 MSHR_MERGE:          0
cpu0->cpu0_L2C PREFETCH     ACCESS:          0 HIT:          0 MISS:          0 MSHR_MERGE:          0
cpu0->cpu0_L2C WRITE        ACCESS:    2782083 HIT:    2780685 MISS:       1398 MSHR_MERGE:          0
cpu0->cpu0_L2C TRANSLATION  ACCESS:     135554 HIT:       1655 MISS:     133899 MSHR_MERGE:          0
cpu0->cpu0_L2C PREFETCH REQUESTED:          0 ISSUED:          0 USEFUL:          0 USELESS:          0
cpu0->cpu0_L2C AVERAGE MISS LATENCY: 94.18 cycles
cpu0->cpu0_L1I TOTAL        ACCESS:    1430038 HIT:    1430036 MISS:          2 MSHR_MERGE:          0
cpu0->cpu0_L1I LOAD         ACCESS:    1430038 HIT:    1430036 MISS:          2 MSHR_MERGE:          0
cpu0->cpu0_L1I RFO          ACCESS:          0 HIT:          0 MISS:          0 MSHR_MERGE:          0
cpu0->cpu0_L1I PREFETCH     ACCESS:          0 HIT:          0 MISS:          0 MSHR_MERGE:          0
cpu0->cpu0_L1I WRITE        ACCESS:          0 HIT:          0 MISS:          0 MSHR_MERGE:          0
cpu0->cpu0_L1I TRANSLATION  ACCESS:          0 HIT:          0 MISS:          0 MSHR_MERGE:          0
cpu0->cpu0_L1I PREFETCH REQUESTED:          0 ISSUED:          0 USEFUL:          0 USELESS:          0
cpu0->cpu0_L1I AVERAGE MISS LATENCY: 194.5 cycles
cpu0->cpu0_L1D TOTAL        ACCESS:  205725397 HIT:  181362911 MISS:   24362486 MSHR_MERGE:    6960916
cpu0->cpu0_L1D LOAD         ACCESS:  145718082 HIT:  126607574 MISS:   19110508 MSHR_MERGE:    3747067
cpu0->cpu0_L1D RFO          ACCESS:          0 HIT:          0 MISS:          0 MSHR_MERGE:          0
cpu0->cpu0_L1D PREFETCH     ACCESS:          0 HIT:          0 MISS:          0 MSHR_MERGE:          0
cpu0->cpu0_L1D WRITE        ACCESS:   59823942 HIT:   54707566 MISS:    5116376 MSHR_MERGE:    3213801
cpu0->cpu0_L1D TRANSLATION  ACCESS:     183373 HIT:      47771 MISS:     135602 MSHR_MERGE:         48
cpu0->cpu0_L1D PREFETCH REQUESTED:          0 ISSUED:          0 USEFUL:          0 USELESS:          0
cpu0->cpu0_L1D AVERAGE MISS LATENCY: 65.71 cycles
cpu0->cpu0_ITLB TOTAL        ACCESS:    1308767 HIT:    1308767 MISS:          0 MSHR_MERGE:          0
cpu0->cpu0_ITLB LOAD         ACCESS:    1308767 HIT:    1308767 MISS:          0 MSHR_MERGE:          0
cpu0->cpu0_ITLB RFO          ACCESS:          0 HIT:          0 MISS:          0 MSHR_MERGE:          0
cpu0->cpu0_ITLB PREFETCH     ACCESS:          0 HIT:          0 MISS:          0 MSHR_MERGE:          0
cpu0->cpu0_ITLB WRITE        ACCESS:          0 HIT:          0 MISS:          0 MSHR_MERGE:          0
cpu0->cpu0_ITLB TRANSLATION  ACCESS:          0 HIT:          0 MISS:          0 MSHR_MERGE:          0
cpu0->cpu0_ITLB PREFETCH REQUESTED:          0 ISSUED:          0 USEFUL:          0 USELESS:          0
cpu0->cpu0_ITLB AVERAGE MISS LATENCY: - cycles
cpu0->cpu0_DTLB TOTAL        ACCESS:  196499905 HIT:  186965834 MISS:    9534071 MSHR_MERGE:    2532548
cpu0->cpu0_DTLB LOAD         ACCESS:  196499905 HIT:  186965834 MISS:    9534071 MSHR_MERGE:    2532548
cpu0->cpu0_DTLB RFO          ACCESS:          0 HIT:          0 MISS:          0 MSHR_MERGE:          0
cpu0->cpu0_DTLB PREFETCH     ACCESS:          0 HIT:          0 MISS:          0 MSHR_MERGE:          0
cpu0->cpu0_DTLB WRITE        ACCESS:          0 HIT:          0 MISS:          0 MSHR_MERGE:          0
cpu0->cpu0_DTLB TRANSLATION  ACCESS:          0 HIT:          0 MISS:          0 MSHR_MERGE:          0
cpu0->cpu0_DTLB PREFETCH REQUESTED:          0 ISSUED:          0 USEFUL:          0 USELESS:          0
cpu0->cpu0_DTLB AVERAGE MISS LATENCY: 11.05 cycles
cpu0->LLC TOTAL        ACCESS:   11919637 HIT:    7169205 MISS:    4750432 MSHR_MERGE:          0
cpu0->LLC LOAD         ACCESS:    9621129 HIT:    4999613 MISS:    4621516 MSHR_MERGE:          0
cpu0->LLC RFO          ACCESS:     789603 HIT:     778029 MISS:      11574 MSHR_MERGE:          0
cpu0->LLC PREFETCH     ACCESS:          0 HIT:          0 MISS:          0 MSHR_MERGE:          0
cpu0->LLC WRITE        ACCESS:    1375006 HIT:    1351721 MISS:      23285 MSHR_MERGE:          0
cpu0->LLC TRANSLATION  ACCESS:     133899 HIT:      39842 MISS:      94057 MSHR_MERGE:          0
cpu0->LLC PREFETCH REQUESTED:          0 ISSUED:          0 USEFUL:          0 USELESS:          0
cpu0->LLC AVERAGE MISS LATENCY: 174.8 cycles

DRAM Statistics

Channel 0 RQ ROW_BUFFER_HIT:     298934
  ROW_BUFFER_MISS:    4428022
  AVG DBUS CONGESTED CYCLE: 21.27
Channel 0 WQ ROW_BUFFER_HIT:      30321
  ROW_BUFFER_MISS:      76644
  FULL:          0
Channel 0 REFRESHES ISSUED:     113388
