[VMEM] WARNING: physical memory size is smaller than virtual memory size.
WARNING: option --warmup_instructions is deprecated. Use --warmup-instructions instead.
WARNING: option --simulation_instructions is deprecated. Use --simulation-instructions instead.

*** ChampSim Multicore Out-of-Order Simulator ***
Warmup Instructions: 20000000
Simulation Instructions: 50000000
Number of CPUs: 1
Page size: 8192

Off-chip DRAM Size: 16 GiB Channels: 1 Width: 64-bit Data Rate: 3205 MT/s
Heartbeat CPU 0 instructions: 10000002 cycles: 2808365 heartbeat IPC: 3.561 cumulative IPC: 3.561 (Simulation time: 00 hr 00 min 38 sec)
Warmup finished CPU 0 instructions: 20000001 cycles: 5603263 cumulative IPC: 3.569 (Simulation time: 00 hr 01 min 16 sec)
Warmup complete CPU 0 instructions: 20000001 cycles: 5603263 cumulative IPC: 3.569 (Simulation time: 00 hr 01 min 16 sec)
Heartbeat CPU 0 instructions: 20000005 cycles: 5603264 heartbeat IPC: 3.578 cumulative IPC: 4 (Simulation time: 00 hr 01 min 16 sec)
Heartbeat CPU 0 instructions: 30000006 cycles: 16957241 heartbeat IPC: 0.8807 cumulative IPC: 0.8807 (Simulation time: 00 hr 03 min 09 sec)
Heartbeat CPU 0 instructions: 40000007 cycles: 28353238 heartbeat IPC: 0.8775 cumulative IPC: 0.8791 (Simulation time: 00 hr 05 min 04 sec)
Heartbeat CPU 0 instructions: 50000008 cycles: 39686675 heartbeat IPC: 0.8823 cumulative IPC: 0.8802 (Simulation time: 00 hr 06 min 56 sec)
Heartbeat CPU 0 instructions: 60000010 cycles: 51099788 heartbeat IPC: 0.8762 cumulative IPC: 0.8792 (Simulation time: 00 hr 08 min 49 sec)
Simulation finished CPU 0 instructions: 50000001 cycles: 56888000 cumulative IPC: 0.8789 (Simulation time: 00 hr 10 min 43 sec)
Simulation complete CPU 0 instructions: 50000001 cycles: 56888000 cumulative IPC: 0.8789 (Simulation time: 00 hr 10 min 43 sec)

ChampSim completed all CPUs

=== Simulation ===
CPU 0 runs traces/470.lbm-1274B.champsimtrace.xz

Region of Interest Statistics

CPU 0 cumulative IPC: 0.8789 instructions: 50000001 cycles: 56888000
CPU 0 Branch Prediction Accuracy: 99.79% MPKI: 0.02864 Average ROB Occupancy at Mispredict: 252.5
Branch type MPKI
BRANCH_DIRECT_JUMP: 0
BRANCH_INDIRECT: 0
BRANCH_CONDITIONAL: 0.02864
BRANCH_DIRECT_CALL: 0
BRANCH_INDIRECT_CALL: 0
BRANCH_RETURN: 0

cpu0->cpu0_STLB TOTAL        ACCESS:      11115 HIT:       5557 MISS:       5558 MSHR_MERGE:          0
cpu0->cpu0_STLB LOAD         ACCESS:      11115 HIT:       5557 MISS:       5558 MSHR_MERGE:          0
cpu0->cpu0_STLB RFO          ACCESS:          0 HIT:          0 MISS:          0 MSHR_MERGE:          0
cpu0->cpu0_STLB PREFETCH     ACCESS:          0 HIT:          0 MISS:          0 MSHR_MERGE:          0
cpu0->cpu0_STLB WRITE        ACCESS:          0 HIT:          0 MISS:          0 MSHR_MERGE:          0
cpu0->cpu0_STLB TRANSLATION  ACCESS:          0 HIT:          0 MISS:          0 MSHR_MERGE:          0
cpu0->cpu0_STLB PREFETCH REQUESTED:          0 ISSUED:          0 USEFUL:          0 USELESS:          0
cpu0->cpu0_STLB AVERAGE MISS LATENCY: 1354 cycles
cpu0->cpu0_L2C TOTAL        ACCESS:    4969223 HIT:    3411022 MISS:    1558201 MSHR_MERGE:      98616
cpu0->cpu0_L2C LOAD         ACCESS:     355730 HIT:     274057 MISS:      81673 MSHR_MERGE:      48109
cpu0->cpu0_L2C RFO          ACCESS:    2007037 HIT:     928801 MISS:    1078236 MSHR_MERGE:          0
cpu0->cpu0_L2C PREFETCH     ACCESS:     587988 HIT:     198380 MISS:     389608 MSHR_MERGE:      50507
cpu0->cpu0_L2C WRITE        ACCESS:    2007340 HIT:    2007340 MISS:          0 MSHR_MERGE:          0
cpu0->cpu0_L2C TRANSLATION  ACCESS:      11128 HIT:       2444 MISS:       8684 MSHR_MERGE:          0
cpu0->cpu0_L2C PREFETCH REQUESTED:     587988 ISSUED:     587988 USEFUL:     322166 USELESS:      17014
cpu0->cpu0_L2C AVERAGE MISS LATENCY: 500.1 cycles
cpu0->cpu0_L1I TOTAL        ACCESS:    8535357 HIT:    8535357 MISS:          0 MSHR_MERGE:          0
cpu0->cpu0_L1I LOAD         ACCESS:    8535357 HIT:    8535357 MISS:          0 MSHR_MERGE:          0
cpu0->cpu0_L1I RFO          ACCESS:          0 HIT:          0 MISS:          0 MSHR_MERGE:          0
cpu0->cpu0_L1I PREFETCH     ACCESS:          0 HIT:          0 MISS:          0 MSHR_MERGE:          0
cpu0->cpu0_L1I WRITE        ACCESS:          0 HIT:          0 MISS:          0 MSHR_MERGE:          0
cpu0->cpu0_L1I TRANSLATION  ACCESS:          0 HIT:          0 MISS:          0 MSHR_MERGE:          0
cpu0->cpu0_L1I PREFETCH REQUESTED:          0 ISSUED:          0 USEFUL:          0 USELESS:          0
cpu0->cpu0_L1I AVERAGE MISS LATENCY: - cycles
cpu0->cpu0_L1D TOTAL        ACCESS:    7411800 HIT:    4859226 MISS:    2552574 MSHR_MERGE:     178366
cpu0->cpu0_L1D LOAD         ACCESS:    2377153 HIT:    1915604 MISS:     461549 MSHR_MERGE:     105819
cpu0->cpu0_L1D RFO          ACCESS:          0 HIT:          0 MISS:          0 MSHR_MERGE:          0
cpu0->cpu0_L1D PREFETCH     ACCESS:          0 HIT:          0 MISS:          0 MSHR_MERGE:          0
cpu0->cpu0_L1D WRITE        ACCESS:    5023519 HIT:    2943622 MISS:    2079897 MSHR_MERGE:      72547
cpu0->cpu0_L1D TRANSLATION  ACCESS:      11128 HIT:          0 MISS:      11128 MSHR_MERGE:          0
cpu0->cpu0_L1D PREFETCH REQUESTED:          0 ISSUED:          0 USEFUL:          0 USELESS:          0
cpu0->cpu0_L1D AVERAGE MISS LATENCY: 289.3 cycles
cpu0->cpu0_ITLB TOTAL        ACCESS:    6753268 HIT:    6753268 MISS:          0 MSHR_MERGE:          0
cpu0->cpu0_ITLB LOAD         ACCESS:    6753268 HIT:    6753268 MISS:          0 MSHR_MERGE:          0
cpu0->cpu0_ITLB RFO          ACCESS:          0 HIT:          0 MISS:          0 MSHR_MERGE:          0
cpu0->cpu0_ITLB PREFETCH     ACCESS:          0 HIT:          0 MISS:          0 MSHR_MERGE:          0
cpu0->cpu0_ITLB WRITE        ACCESS:          0 HIT:          0 MISS:          0 MSHR_MERGE:          0
cpu0->cpu0_ITLB TRANSLATION  ACCESS:          0 HIT:          0 MISS:          0 MSHR_MERGE:          0
cpu0->cpu0_ITLB PREFETCH REQUESTED:          0 ISSUED:          0 USEFUL:          0 USELESS:          0
cpu0->cpu0_ITLB AVERAGE MISS LATENCY: - cycles
cpu0->cpu0_DTLB TOTAL        ACCESS:    6908109 HIT:    6878683 MISS:      29426 MSHR_MERGE:      18311
cpu0->cpu0_DTLB LOAD         ACCESS:    6908109 HIT:    6878683 MISS:      29426 MSHR_MERGE:      18311
cpu0->cpu0_DTLB RFO          ACCESS:          0 HIT:          0 MISS:          0 MSHR_MERGE:          0
cpu0->cpu0_DTLB PREFETCH     ACCESS:          0 HIT:          0 MISS:          0 MSHR_MERGE:          0
cpu0->cpu0_DTLB WRITE        ACCESS:          0 HIT:          0 MISS:          0 MSHR_MERGE:          0
cpu0->cpu0_DTLB TRANSLATION  ACCESS:          0 HIT:          0 MISS:          0 MSHR_MERGE:          0
cpu0->cpu0_DTLB PREFETCH REQUESTED:          0 ISSUED:          0 USEFUL:          0 USELESS:          0
cpu0->cpu0_DTLB AVERAGE MISS LATENCY: 681.4 cycles
cpu0->LLC TOTAL        ACCESS:    2538045 HIT:      72503 MISS:    2465542 MSHR_MERGE:          0
cpu0->LLC LOAD         ACCESS:      33564 HIT:          0 MISS:      33564 MSHR_MERGE:          0
cpu0->LLC RFO          ACCESS:    1078234 HIT:      21968 MISS:    1056266 MSHR_MERGE:          0
cpu0->LLC PREFETCH     ACCESS:     339101 HIT:          0 MISS:     339101 MSHR_MERGE:          0
cpu0->LLC WRITE        ACCESS:    1078462 HIT:      50535 MISS:    1027927 MSHR_MERGE:          0
cpu0->LLC TRANSLATION  ACCESS:       8684 HIT:          0 MISS:       8684 MSHR_MERGE:          0
cpu0->LLC PREFETCH REQUESTED:          0 ISSUED:          0 USEFUL:          0 USELESS:          0
cpu0->LLC AVERAGE MISS LATENCY: 263.9 cycles

DRAM Statistics

Channel 0 RQ ROW_BUFFER_HIT:      47044
  ROW_BUFFER_MISS:    1390441
  AVG DBUS CONGESTED CYCLE: 11.86
Channel 0 WQ ROW_BUFFER_HIT:     140716
  ROW_BUFFER_MISS:     912162
  FULL:          0
Channel 0 REFRESHES ISSUED:       4741
