[VMEM] WARNING: physical memory size is smaller than virtual memory size.
WARNING: option --warmup_instructions is deprecated. Use --warmup-instructions instead.
WARNING: option --simulation_instructions is deprecated. Use --simulation-instructions instead.

*** ChampSim Multicore Out-of-Order Simulator ***
Warmup Instructions: 20000000
Simulation Instructions: 50000000
Number of CPUs: 1
Page size: 8192

Off-chip DRAM Size: 16 GiB Channels: 1 Width: 64-bit Data Rate: 3205 MT/s
Heartbeat CPU 0 instructions: 10000001 cycles: 3547525 heartbeat IPC: 2.819 cumulative IPC: 2.819 (Simulation time: 00 hr 00 min 36 sec)
Warmup finished CPU 0 instructions: 20000000 cycles: 7087394 cumulative IPC: 2.822 (Simulation time: 00 hr 01 min 11 sec)
Warmup complete CPU 0 instructions: 20000000 cycles: 7087394 cumulative IPC: 2.822 (Simulation time: 00 hr 01 min 11 sec)
Heartbeat CPU 0 instructions: 20000003 cycles: 7087396 heartbeat IPC: 2.825 cumulative IPC: 1.5 (Simulation time: 00 hr 01 min 11 sec)
Heartbeat CPU 0 instructions: 30000003 cycles: 13982297 heartbeat IPC: 1.45 cumulative IPC: 1.45 (Simulation time: 00 hr 02 min 05 sec)
Heartbeat CPU 0 instructions: 40000004 cycles: 20872418 heartbeat IPC: 1.451 cumulative IPC: 1.451 (Simulation time: 00 hr 03 min 00 sec)
Heartbeat CPU 0 instructions: 50000007 cycles: 27763807 heartbeat IPC: 1.451 cumulative IPC: 1.451 (Simulation time: 00 hr 03 min 54 sec)
Heartbeat CPU 0 instructions: 60000009 cycles: 34655194 heartbeat IPC: 1.451 cumulative IPC: 1.451 (Simulation time: 00 hr 04 min 47 sec)
Simulation finished CPU 0 instructions: 50000000 cycles: 34465388 cumulative IPC: 1.451 (Simulation time: 00 hr 05 min 40 sec)
Simulation complete CPU 0 instructions: 50000000 cycles: 34465388 cumulative IPC: 1.451 (Simulation time: 00 hr 05 min 40 sec)

ChampSim completed all CPUs

=== Simulation ===
CPU 0 runs traces/603.bwaves_s-1740B.champsimtrace.xz

Region of Interest Statistics

CPU 0 cumulative IPC: 1.451 instructions: 50000000 cycles: 34465388
CPU 0 Branch Prediction Accuracy: 99.97% MPKI: 0.00734 Average ROB Occupancy at Mispredict: 189.8
Branch type MPKI
BRANCH_DIRECT_JUMP: 0
BRANCH_INDIRECT: 0
BRANCH_CONDITIONAL: 0.00734
BRANCH_DIRECT_CALL: 0
BRANCH_INDIRECT_CALL: 0
BRANCH_RETURN: 0

cpu0->cpu0_STLB TOTAL        ACCESS:       7425 HIT:        365 MISS:       7060 MSHR_MERGE:          0
cpu0->cpu0_STLB LOAD         ACCESS:       7425 HIT:        365 MISS:       7060 MSHR_MERGE:          0
cpu0->cpu0_STLB RFO          ACCESS:          0 HIT:          0 MISS:          0 MSHR_MERGE:          0
cpu0->cpu0_STLB PREFETCH     ACCESS:          0 HIT:          0 MISS:          0 MSHR_MERGE:          0
cpu0->cpu0_STLB WRITE        ACCESS:          0 HIT:          0 MISS:          0 MSHR_MERGE:          0
cpu0->cpu0_STLB TRANSLATION  ACCESS:          0 HIT:          0 MISS:          0 MSHR_MERGE:          0
cpu0->cpu0_STLB PREFETCH REQUESTED:          0 ISSUED:          0 USEFUL:          0 USELESS:          0
cpu0->cpu0_STLB AVERAGE MISS LATENCY: 693.9 cycles
cpu0->cpu0_L2C TOTAL        ACCESS:    1982653 HIT:    1403174 MISS:     579479 MSHR_MERGE:      94232
cpu0->cpu0_L2C LOAD         ACCESS:     505238 HIT:     495608 MISS:       9630 MSHR_MERGE:        617
cpu0->cpu0_L2C RFO          ACCESS:      17508 HIT:       5327 MISS:      12181 MSHR_MERGE:          0
cpu0->cpu0_L2C PREFETCH     ACCESS:    1427527 HIT:     879869 MISS:     547658 MSHR_MERGE:      93615
cpu0->cpu0_L2C WRITE        ACCESS:      19658 HIT:      19658 MISS:          0 MSHR_MERGE:          0
cpu0->cpu0_L2C TRANSLATION  ACCESS:      12722 HIT:       2712 MISS:      10010 MSHR_MERGE:          0
cpu0->cpu0_L2C PREFETCH REQUESTED:    1427605 ISSUED:    1427521 USEFUL:     454004 USELESS:         34
cpu0->cpu0_L2C AVERAGE MISS LATENCY: 207.8 cycles
cpu0->cpu0_L1I TOTAL        ACCESS:   10019779 HIT:   10019779 MISS:          0 MSHR_MERGE:          0
cpu0->cpu0_L1I LOAD         ACCESS:   10019779 HIT:   10019779 MISS:          0 MSHR_MERGE:          0
cpu0->cpu0_L1I RFO          ACCESS:          0 HIT:          0 MISS:          0 MSHR_MERGE:          0
cpu0->cpu0_L1I PREFETCH     ACCESS:          0 HIT:          0 MISS:          0 MSHR_MERGE:          0
cpu0->cpu0_L1I WRITE        ACCESS:          0 HIT:          0 MISS:          0 MSHR_MERGE:          0
cpu0->cpu0_L1I TRANSLATION  ACCESS:          0 HIT:          0 MISS:          0 MSHR_MERGE:          0
cpu0->cpu0_L1I PREFETCH REQUESTED:          0 ISSUED:          0 USEFUL:          0 USELESS:          0
cpu0->cpu0_L1I AVERAGE MISS LATENCY: - cycles
cpu0->cpu0_L1D TOTAL        ACCESS:   15333844 HIT:   14769909 MISS:     563935 MSHR_MERGE:      28423
cpu0->cpu0_L1D LOAD         ACCESS:   12503120 HIT:   11992075 MISS:     511045 MSHR_MERGE:       5793
cpu0->cpu0_L1D RFO          ACCESS:          0 HIT:          0 MISS:          0 MSHR_MERGE:          0
cpu0->cpu0_L1D PREFETCH     ACCESS:          0 HIT:          0 MISS:          0 MSHR_MERGE:          0
cpu0->cpu0_L1D WRITE        ACCESS:    2816699 HIT:    2776738 MISS:      39961 MSHR_MERGE:      22423
cpu0->cpu0_L1D TRANSLATION  ACCESS:      14025 HIT:       1096 MISS:      12929 MSHR_MERGE:        207
cpu0->cpu0_L1D PREFETCH REQUESTED:          0 ISSUED:          0 USEFUL:          0 USELESS:          0
cpu0->cpu0_L1D AVERAGE MISS LATENCY: 20.48 cycles
cpu0->cpu0_ITLB TOTAL        ACCESS:    9748541 HIT:    9748541 MISS:          0 MSHR_MERGE:          0
cpu0->cpu0_ITLB LOAD         ACCESS:    9748541 HIT:    9748541 MISS:          0 MSHR_MERGE:          0
cpu0->cpu0_ITLB RFO          ACCESS:          0 HIT:          0 MISS:          0 MSHR_MERGE:          0
cpu0->cpu0_ITLB PREFETCH     ACCESS:          0 HIT:          0 MISS:          0 MSHR_MERGE:          0
cpu0->cpu0_ITLB WRITE        ACCESS:          0 HIT:          0 MISS:          0 MSHR_MERGE:          0
cpu0->cpu0_ITLB TRANSLATION  ACCESS:          0 HIT:          0 MISS:          0 MSHR_MERGE:          0
cpu0->cpu0_ITLB PREFETCH REQUESTED:          0 ISSUED:          0 USEFUL:          0 USELESS:          0
cpu0->cpu0_ITLB AVERAGE MISS LATENCY: - cycles
cpu0->cpu0_DTLB TOTAL        ACCESS:   14791326 HIT:   14778357 MISS:      12969 MSHR_MERGE:       5544
cpu0->cpu0_DTLB LOAD         ACCESS:   14791326 HIT:   14778357 MISS:      12969 MSHR_MERGE:       5544
cpu0->cpu0_DTLB RFO          ACCESS:          0 HIT:          0 MISS:          0 MSHR_MERGE:          0
cpu0->cpu0_DTLB PREFETCH     ACCESS:          0 HIT:          0 MISS:          0 MSHR_MERGE:          0
cpu0->cpu0_DTLB WRITE        ACCESS:          0 HIT:          0 MISS:          0 MSHR_MERGE:          0
cpu0->cpu0_DTLB TRANSLATION  ACCESS:          0 HIT:          0 MISS:          0 MSHR_MERGE:          0
cpu0->cpu0_DTLB PREFETCH REQUESTED:          0 ISSUED:          0 USEFUL:          0 USELESS:          0
cpu0->cpu0_DTLB AVERAGE MISS LATENCY: 664.7 cycles
cpu0->LLC TOTAL        ACCESS:     497404 HIT:       2699 MISS:     494705 MSHR_MERGE:          0
cpu0->LLC LOAD         ACCESS:       9013 HIT:         25 MISS:       8988 MSHR_MERGE:          0
cpu0->LLC RFO          ACCESS:      12181 HIT:          0 MISS:      12181 MSHR_MERGE:          0
cpu0->LLC PREFETCH     ACCESS:     454043 HIT:       1474 MISS:     452569 MSHR_MERGE:          0
cpu0->LLC WRITE        ACCESS:      12157 HIT:       1198 MISS:      10959 MSHR_MERGE:          0
cpu0->LLC TRANSLATION  ACCESS:      10010 HIT:          2 MISS:      10008 MSHR_MERGE:          0
cpu0->LLC PREFETCH REQUESTED:          0 ISSUED:          0 USEFUL:          0 USELESS:          0
cpu0->LLC AVERAGE MISS LATENCY: 145.1 cycles

DRAM Statistics

Channel 0 RQ ROW_BUFFER_HIT:        720
  ROW_BUFFER_MISS:     483026
  AVG DBUS CONGESTED CYCLE: 7.47
Channel 0 WQ ROW_BUFFER_HIT:        672
  ROW_BUFFER_MISS:      11511
  FULL:          0
Channel 0 REFRESHES ISSUED:       2872
