[VMEM] WARNING: physical memory size is smaller than virtual memory size.
WARNING: option --warmup_instructions is deprecated. Use --warmup-instructions instead.
WARNING: option --simulation_instructions is deprecated. Use --simulation-instructions instead.

*** ChampSim Multicore Out-of-Order Simulator ***
Warmup Instructions: 20000000
Simulation Instructions: 50000000
Number of CPUs: 1
Page size: 8192

Off-chip DRAM Size: 16 GiB Channels: 1 Width: 64-bit Data Rate: 3205 MT/s
Heartbeat CPU 0 instructions: 10000003 cycles: 8050840 heartbeat IPC: 1.242 cumulative IPC: 1.242 (Simulation time: 00 hr 01 min 05 sec)
Warmup finished CPU 0 instructions: 20000000 cycles: 14886449 cumulative IPC: 1.344 (Simulation time: 00 hr 02 min 06 sec)
Warmup complete CPU 0 instructions: 20000000 cycles: 14886449 cumulative IPC: 1.344 (Simulation time: 00 hr 02 min 06 sec)
Heartbeat CPU 0 instructions: 20000004 cycles: 14886450 heartbeat IPC: 1.463 cumulative IPC: 4 (Simulation time: 00 hr 02 min 06 sec)
Heartbeat CPU 0 instructions: 30000006 cycles: 41930453 heartbeat IPC: 0.3698 cumulative IPC: 0.3698 (Simulation time: 00 hr 04 min 17 sec)
Heartbeat CPU 0 instructions: 40000008 cycles: 69202211 heartbeat IPC: 0.3667 cumulative IPC: 0.3682 (Simulation time: 00 hr 06 min 33 sec)
Heartbeat CPU 0 instructions: 50000008 cycles: 96429479 heartbeat IPC: 0.3673 cumulative IPC: 0.3679 (Simulation time: 00 hr 08 min 48 sec)
Heartbeat CPU 0 instructions: 60000011 cycles: 121959737 heartbeat IPC: 0.3917 cumulative IPC: 0.3736 (Simulation time: 00 hr 10 min 55 sec)
Simulation finished CPU 0 instructions: 50000001 cycles: 131846095 cumulative IPC: 0.3792 (Simulation time: 00 hr 12 min 59 sec)
Simulation complete CPU 0 instructions: 50000001 cycles: 131846095 cumulative IPC: 0.3792 (Simulation time: 00 hr 12 min 59 sec)

ChampSim completed all CPUs

=== Simulation ===
CPU 0 runs traces/620.omnetpp_s-874B.champsimtrace.xz

Region of Interest Statistics

CPU 0 cumulative IPC: 0.3792 instructions: 50000001 cycles: 131846095
CPU 0 Branch Prediction Accuracy: 96.16% MPKI: 7.99 Average ROB Occupancy at Mispredict: 58.69
Branch type MPKI
BRANCH_DIRECT_JUMP: 0.9384
BRANCH_INDIRECT: 0.1208
BRANCH_CONDITIONAL: 5.805
BRANCH_DIRECT_CALL: 0.00236
BRANCH_INDIRECT_CALL: 0.7298
BRANCH_RETURN: 0.3936

cpu0->cpu0_STLB TOTAL        ACCESS:     828239 HIT:     691145 MISS:     137094 MSHR_MERGE:          0
cpu0->cpu0_STLB LOAD         ACCESS:     828239 HIT:     691145 MISS:     137094 MSHR_MERGE:          0
cpu0->cpu0_STLB RFO          ACCESS:          0 HIT:          0 MISS:          0 MSHR_MERGE:          0
cpu0->cpu0_STLB PREFETCH     ACCESS:          0 HIT:          0 MISS:          0 MSHR_MERGE:          0
cpu0->cpu0_STLB WRITE        ACCESS:          0 HIT:          0 MISS:          0 MSHR_MERGE:          0
cpu0->cpu0_STLB TRANSLATION  ACCESS:          0 HIT:          0 MISS:          0 MSHR_MERGE:          0
cpu0->cpu0_STLB PREFETCH REQUESTED:          0 ISSUED:          0 USEFUL:          0 USELESS:          0
cpu0->cpu0_STLB AVERAGE MISS LATENCY: 339.1 cycles
cpu0->cpu0_L2C TOTAL        ACCESS:    2143852 HIT:     937701 MISS:    1206151 MSHR_MERGE:      66113
cpu0->cpu0_L2C LOAD         ACCESS:     682205 HIT:     259409 MISS:     422796 MSHR_MERGE:      19709
cpu0->cpu0_L2C RFO          ACCESS:      85247 HIT:      36490 MISS:      48757 MSHR_MERGE:       2269
cpu0->cpu0_L2C PREFETCH     ACCESS:     672468 HIT:     202696 MISS:     469772 MSHR_MERGE:      44135
cpu0->cpu0_L2C WRITE        ACCESS:     415298 HIT:     413687 MISS:       1611 MSHR_MERGE:          0
cpu0->cpu0_L2C TRANSLATION  ACCESS:     288634 HIT:      25419 MISS:     263215 MSHR_MERGE:          0
cpu0->cpu0_L2C PREFETCH REQUESTED:     672468 ISSUED:     672468 USEFUL:     123235 USELESS:     302427
cpu0->cpu0_L2C AVERAGE MISS LATENCY: 142 cycles
cpu0->cpu0_L1I TOTAL        ACCESS:    7351058 HIT:    7350528 MISS:        530 MSHR_MERGE:        157
cpu0->cpu0_L1I LOAD         ACCESS:    7351058 HIT:    7350528 MISS:        530 MSHR_MERGE:        157
cpu0->cpu0_L1I RFO          ACCESS:          0 HIT:          0 MISS:          0 MSHR_MERGE:          0
cpu0->cpu0_L1I PREFETCH     ACCESS:          0 HIT:          0 MISS:          0 MSHR_MERGE:          0
cpu0->cpu0_L1I WRITE        ACCESS:          0 HIT:          0 MISS:          0 MSHR_MERGE:          0
cpu0->cpu0_L1I TRANSLATION  ACCESS:          0 HIT:          0 MISS:          0 MSHR_MERGE:          0
cpu0->cpu0_L1I PREFETCH REQUESTED:          0 ISSUED:          0 USEFUL:          0 USELESS:          0
cpu0->cpu0_L1I AVERAGE MISS LATENCY: 113 cycles
cpu0->cpu0_L1D TOTAL        ACCESS:   18478844 HIT:   17142731 MISS:    1336113 MSHR_MERGE:     280391
cpu0->cpu0_L1D LOAD         ACCESS:    9143545 HIT:    8284778 MISS:     858767 MSHR_MERGE:     176928
cpu0->cpu0_L1D RFO          ACCESS:          0 HIT:          0 MISS:          0 MSHR_MERGE:          0
cpu0->cpu0_L1D PREFETCH     ACCESS:          0 HIT:          0 MISS:          0 MSHR_MERGE:          0
cpu0->cpu0_L1D WRITE        ACCESS:    9034065 HIT:    8845742 MISS:     188323 MSHR_MERGE:     103074
cpu0->cpu0_L1D TRANSLATION  ACCESS:     301234 HIT:      12211 MISS:     289023 MSHR_MERGE:        389
cpu0->cpu0_L1D PREFETCH REQUESTED:          0 ISSUED:          0 USEFUL:          0 USELESS:          0
cpu0->cpu0_L1D AVERAGE MISS LATENCY: 107.7 cycles
cpu0->cpu0_ITLB TOTAL        ACCESS:    6945829 HIT:    6945628 MISS:        201 MSHR_MERGE:         97
cpu0->cpu0_ITLB LOAD         ACCESS:    6945829 HIT:    6945628 MISS:        201 MSHR_MERGE:         97
cpu0->cpu0_ITLB RFO          ACCESS:          0 HIT:          0 MISS:          0 MSHR_MERGE:          0
cpu0->cpu0_ITLB PREFETCH     ACCESS:          0 HIT:          0 MISS:          0 MSHR_MERGE:          0
cpu0->cpu0_ITLB WRITE        ACCESS:          0 HIT:          0 MISS:          0 MSHR_MERGE:          0
cpu0->cpu0_ITLB TRANSLATION  ACCESS:          0 HIT:          0 MISS:          0 MSHR_MERGE:          0
cpu0->cpu0_ITLB PREFETCH REQUESTED:          0 ISSUED:          0 USEFUL:          0 USELESS:          0
cpu0->cpu0_ITLB AVERAGE MISS LATENCY: 192.5 cycles
cpu0->cpu0_DTLB TOTAL        ACCESS:   16969755 HIT:   16030835 MISS:     938920 MSHR_MERGE:     110784
cpu0->cpu0_DTLB LOAD         ACCESS:   16969755 HIT:   16030835 MISS:     938920 MSHR_MERGE:     110784
cpu0->cpu0_DTLB RFO          ACCESS:          0 HIT:          0 MISS:          0 MSHR_MERGE:          0
cpu0->cpu0_DTLB PREFETCH     ACCESS:          0 HIT:          0 MISS:          0 MSHR_MERGE:          0
cpu0->cpu0_DTLB WRITE        ACCESS:          0 HIT:          0 MISS:          0 MSHR_MERGE:          0
cpu0->cpu0_DTLB TRANSLATION  ACCESS:          0 HIT:          0 MISS:          0 MSHR_MERGE:          0
cpu0->cpu0_DTLB PREFETCH REQUESTED:          0 ISSUED:          0 USEFUL:          0 USELESS:          0
cpu0->cpu0_DTLB AVERAGE MISS LATENCY: 60.28 cycles
cpu0->LLC TOTAL        ACCESS:    1458687 HIT:     383934 MISS:    1074753 MSHR_MERGE:          0
cpu0->LLC LOAD         ACCESS:     403087 HIT:     110269 MISS:     292818 MSHR_MERGE:          0
cpu0->LLC RFO          ACCESS:      46488 HIT:       7975 MISS:      38513 MSHR_MERGE:          0
cpu0->LLC PREFETCH     ACCESS:     425637 HIT:      89786 MISS:     335851 MSHR_MERGE:          0
cpu0->LLC WRITE        ACCESS:     320260 HIT:     124130 MISS:     196130 MSHR_MERGE:          0
cpu0->LLC TRANSLATION  ACCESS:     263215 HIT:      51774 MISS:     211441 MSHR_MERGE:          0
cpu0->LLC PREFETCH REQUESTED:          0 ISSUED:          0 USEFUL:          0 USELESS:          0
cpu0->LLC AVERAGE MISS LATENCY: 124.5 cycles

DRAM Statistics

Channel 0 RQ ROW_BUFFER_HIT:       6676
  ROW_BUFFER_MISS:     871866
  AVG DBUS CONGESTED CYCLE: 19.27
Channel 0 WQ ROW_BUFFER_HIT:      63910
  ROW_BUFFER_MISS:     157611
  FULL:          0
Channel 0 REFRESHES ISSUED:      10987
