[VMEM] WARNING: physical memory size is smaller than virtual memory size.
WARNING: option --warmup_instructions is deprecated. Use --warmup-instructions instead.
WARNING: option --simulation_instructions is deprecated. Use --simulation-instructions instead.

*** ChampSim Multicore Out-of-Order Simulator ***
Warmup Instructions: 20000000
Simulation Instructions: 50000000
Number of CPUs: 1
Page size: 8192

Off-chip DRAM Size: 16 GiB Channels: 1 Width: 64-bit Data Rate: 3205 MT/s
Heartbeat CPU 0 instructions: 10000002 cycles: 5378823 heartbeat IPC: 1.859 cumulative IPC: 1.859 (Simulation time: 00 hr 00 min 47 sec)
Warmup finished CPU 0 instructions: 20000001 cycles: 10088421 cumulative IPC: 1.982 (Simulation time: 00 hr 01 min 33 sec)
Warmup complete CPU 0 instructions: 20000001 cycles: 10088421 cumulative IPC: 1.982 (Simulation time: 00 hr 01 min 33 sec)
Heartbeat CPU 0 instructions: 20000005 cycles: 10088422 heartbeat IPC: 2.123 cumulative IPC: 4 (Simulation time: 00 hr 01 min 33 sec)
Heartbeat CPU 0 instructions: 30000008 cycles: 23067131 heartbeat IPC: 0.7705 cumulative IPC: 0.7705 (Simulation time: 00 hr 02 min 56 sec)
Heartbeat CPU 0 instructions: 40000011 cycles: 31250212 heartbeat IPC: 1.222 cumulative IPC: 0.9451 (Simulation time: 00 hr 03 min 53 sec)
Heartbeat CPU 0 instructions: 50000011 cycles: 42124338 heartbeat IPC: 0.9196 cumulative IPC: 0.9364 (Simulation time: 00 hr 05 min 04 sec)
Heartbeat CPU 0 instructions: 60000014 cycles: 57861740 heartbeat IPC: 0.6354 cumulative IPC: 0.8373 (Simulation time: 00 hr 06 min 38 sec)
Simulation finished CPU 0 instructions: 50000000 cycles: 58317462 cumulative IPC: 0.8574 (Simulation time: 00 hr 07 min 49 sec)
Simulation complete CPU 0 instructions: 50000000 cycles: 58317462 cumulative IPC: 0.8574 (Simulation time: 00 hr 07 min 49 sec)

ChampSim completed all CPUs

=== Simulation ===
CPU 0 runs traces/429.mcf-217B.champsimtrace.xz

Region of Interest Statistics

CPU 0 cumulative IPC: 0.8574 instructions: 50000000 cycles: 58317462
CPU 0 Branch Prediction Accuracy: 98.95% MPKI: 1.194 Average ROB Occupancy at Mispredict: 120.3
Branch type MPKI
BRANCH_DIRECT_JUMP: 0
BRANCH_INDIRECT: 0
BRANCH_CONDITIONAL: 1.194
BRANCH_DIRECT_CALL: 0
BRANCH_INDIRECT_CALL: 0
BRANCH_RETURN: 0

cpu0->cpu0_STLB TOTAL        ACCESS:      57555 HIT:      55705 MISS:       1850 MSHR_MERGE:          0
cpu0->cpu0_STLB LOAD         ACCESS:      57555 HIT:      55705 MISS:       1850 MSHR_MERGE:          0
cpu0->cpu0_STLB RFO          ACCESS:          0 HIT:          0 MISS:          0 MSHR_MERGE:          0
cpu0->cpu0_STLB PREFETCH     ACCESS:          0 HIT:          0 MISS:          0 MSHR_MERGE:          0
cpu0->cpu0_STLB WRITE        ACCESS:          0 HIT:          0 MISS:          0 MSHR_MERGE:          0
cpu0->cpu0_STLB TRANSLATION  ACCESS:          0 HIT:          0 MISS:          0 MSHR_MERGE:          0
cpu0->cpu0_STLB PREFETCH REQUESTED:          0 ISSUED:          0 USEFUL:          0 USELESS:          0
cpu0->cpu0_STLB AVERAGE MISS LATENCY: 694.9 cycles
cpu0->cpu0_L2C TOTAL        ACCESS:    6172856 HIT:    3458135 MISS:    2714721 MSHR_MERGE:     979891
cpu0->cpu0_L2C LOAD         ACCESS:    1711968 HIT:    1367342 MISS:     344626 MSHR_MERGE:     202786
cpu0->cpu0_L2C RFO          ACCESS:       1277 HIT:       1160 MISS:        117 MSHR_MERGE:         15
cpu0->cpu0_L2C PREFETCH     ACCESS:    4399576 HIT:    2032744 MISS:    2366832 MSHR_MERGE:     777090
cpu0->cpu0_L2C WRITE        ACCESS:      56906 HIT:      56559 MISS:        347 MSHR_MERGE:          0
cpu0->cpu0_L2C TRANSLATION  ACCESS:       3129 HIT:        330 MISS:       2799 MSHR_MERGE:          0
cpu0->cpu0_L2C PREFETCH REQUESTED:    4399574 ISSUED:    4399574 USEFUL:    1557204 USELESS:      32519
cpu0->cpu0_L2C AVERAGE MISS LATENCY: 93.31 cycles
cpu0->cpu0_L1I TOTAL        ACCESS:    8894926 HIT:    8894926 MISS:          0 MSHR_MERGE:          0
cpu0->cpu0_L1I LOAD         ACCESS:    8894926 HIT:    8894926 MISS:          0 MSHR_MERGE:          0
cpu0->cpu0_L1I RFO          ACCESS:          0 HIT:          0 MISS:          0 MSHR_MERGE:          0
cpu0->cpu0_L1I PREFETCH     ACCESS:          0 HIT:          0 MISS:          0 MSHR_MERGE:          0
cpu0->cpu0_L1I WRITE        ACCESS:          0 HIT:          0 MISS:          0 MSHR_MERGE:          0
cpu0->cpu0_L1I TRANSLATION  ACCESS:          0 HIT:          0 MISS:          0 MSHR_MERGE:          0
cpu0->cpu0_L1I PREFETCH REQUESTED:          0 ISSUED:          0 USEFUL:          0 USELESS:          0
cpu0->cpu0_L1I AVERAGE MISS LATENCY: - cycles
cpu0->cpu0_L1D TOTAL        ACCESS:   15666879 HIT:   13827611 MISS:    1839268 MSHR_MERGE:     122883
cpu0->cpu0_L1D LOAD         ACCESS:    7935419 HIT:    6102257 MISS:    1833162 MSHR_MERGE:     121183
cpu0->cpu0_L1D RFO          ACCESS:          0 HIT:          0 MISS:          0 MSHR_MERGE:          0
cpu0->cpu0_L1D PREFETCH     ACCESS:          0 HIT:          0 MISS:          0 MSHR_MERGE:          0
cpu0->cpu0_L1D WRITE        ACCESS:    7727753 HIT:    7724776 MISS:       2977 MSHR_MERGE:       1700
cpu0->cpu0_L1D TRANSLATION  ACCESS:       3707 HIT:        578 MISS:       3129 MSHR_MERGE:          0
cpu0->cpu0_L1D PREFETCH REQUESTED:          0 ISSUED:          0 USEFUL:          0 USELESS:          0
cpu0->cpu0_L1D AVERAGE MISS LATENCY: 27.12 cycles
cpu0->cpu0_ITLB TOTAL        ACCESS:    7950008 HIT:    7950008 MISS:          0 MSHR_MERGE:          0
cpu0->cpu0_ITLB LOAD         ACCESS:    7950008 HIT:    7950008 MISS:          0 MSHR_MERGE:          0
cpu0->cpu0_ITLB RFO          ACCESS:          0 HIT:          0 MISS:          0 MSHR_MERGE:          0
cpu0->cpu0_ITLB PREFETCH     ACCESS:          0 HIT:          0 MISS:          0 MSHR_MERGE:          0
cpu0->cpu0_ITLB WRITE        ACCESS:          0 HIT:          0 MISS:          0 MSHR_MERGE:          0
cpu0->cpu0_ITLB TRANSLATION  ACCESS:          0 HIT:          0 MISS:          0 MSHR_MERGE:          0
cpu0->cpu0_ITLB PREFETCH REQUESTED:          0 ISSUED:          0 USEFUL:          0 USELESS:          0
cpu0->cpu0_ITLB AVERAGE MISS LATENCY: - cycles
cpu0->cpu0_DTLB TOTAL        ACCESS:   14311227 HIT:   14240940 MISS:      70287 MSHR_MERGE:      12732
cpu0->cpu0_DTLB LOAD         ACCESS:   14311227 HIT:   14240940 MISS:      70287 MSHR_MERGE:      12732
cpu0->cpu0_DTLB RFO          ACCESS:          0 HIT:          0 MISS:          0 MSHR_MERGE:          0
cpu0->cpu0_DTLB PREFETCH     ACCESS:          0 HIT:          0 MISS:          0 MSHR_MERGE:          0
cpu0->cpu0_DTLB WRITE        ACCESS:          0 HIT:          0 MISS:          0 MSHR_MERGE:          0
cpu0->cpu0_DTLB TRANSLATION  ACCESS:          0 HIT:          0 MISS:          0 MSHR_MERGE:          0
cpu0->cpu0_DTLB PREFETCH REQUESTED:          0 ISSUED:          0 USEFUL:          0 USELESS:          0
cpu0->cpu0_DTLB AVERAGE MISS LATENCY: 26.37 cycles
cpu0->LLC TOTAL        ACCESS:    1781484 HIT:     782050 MISS:     999434 MSHR_MERGE:          0
cpu0->LLC LOAD         ACCESS:     141840 HIT:      38920 MISS:     102920 MSHR_MERGE:          0
cpu0->LLC RFO          ACCESS:        102 HIT:         72 MISS:         30 MSHR_MERGE:          0
cpu0->LLC PREFETCH     ACCESS:    1589740 HIT:     727181 MISS:     862559 MSHR_MERGE:          0
cpu0->LLC WRITE        ACCESS:      47003 HIT:      15865 MISS:      31138 MSHR_MERGE:          0
cpu0->LLC TRANSLATION  ACCESS:       2799 HIT:         12 MISS:       2787 MSHR_MERGE:          0
cpu0->LLC PREFETCH REQUESTED:          0 ISSUED:          0 USEFUL:          0 USELESS:          0
cpu0->LLC AVERAGE MISS LATENCY: 130 cycles

DRAM Statistics

Channel 0 RQ ROW_BUFFER_HIT:     142482
  ROW_BUFFER_MISS:     825710
  AVG DBUS CONGESTED CYCLE: 8.26
Channel 0 WQ ROW_BUFFER_HIT:       5176
  ROW_BUFFER_MISS:      38746
  FULL:          0
Channel 0 REFRESHES ISSUED:       4860
