[VMEM] WARNING: physical memory size is smaller than virtual memory size.
WARNING: option --warmup_instructions is deprecated. Use --warmup-instructions instead.
WARNING: option --simulation_instructions is deprecated. Use --simulation-instructions instead.

*** ChampSim Multicore Out-of-Order Simulator ***
Warmup Instructions: 20000000
Simulation Instructions: 50000000
Number of CPUs: 1
Page size: 8192

Off-chip DRAM Size: 16 GiB Channels: 1 Width: 64-bit Data Rate: 3205 MT/s
Heartbeat CPU 0 instructions: 10000003 cycles: 7233019 heartbeat IPC: 1.383 cumulative IPC: 1.383 (Simulation time: 00 hr 01 min 10 sec)
Warmup finished CPU 0 instructions: 20000002 cycles: 14217460 cumulative IPC: 1.407 (Simulation time: 00 hr 02 min 26 sec)
Warmup complete CPU 0 instructions: 20000002 cycles: 14217460 cumulative IPC: 1.407 (Simulation time: 00 hr 02 min 26 sec)
Heartbeat CPU 0 instructions: 20000006 cycles: 14217461 heartbeat IPC: 1.432 cumulative IPC: 4 (Simulation time: 00 hr 02 min 26 sec)
Heartbeat CPU 0 instructions: 30000007 cycles: 36058011 heartbeat IPC: 0.4579 cumulative IPC: 0.4579 (Simulation time: 00 hr 05 min 02 sec)
Heartbeat CPU 0 instructions: 40000008 cycles: 47238780 heartbeat IPC: 0.8944 cumulative IPC: 0.6057 (Simulation time: 00 hr 06 min 31 sec)
Heartbeat CPU 0 instructions: 50000008 cycles: 64023093 heartbeat IPC: 0.5958 cumulative IPC: 0.6023 (Simulation time: 00 hr 08 min 33 sec)
Heartbeat CPU 0 instructions: 60000010 cycles: 91355390 heartbeat IPC: 0.3659 cumulative IPC: 0.5186 (Simulation time: 00 hr 11 min 42 sec)
Simulation finished CPU 0 instructions: 50000000 cycles: 93210492 cumulative IPC: 0.5364 (Simulation time: 00 hr 13 min 42 sec)
Simulation complete CPU 0 instructions: 50000000 cycles: 93210492 cumulative IPC: 0.5364 (Simulation time: 00 hr 13 min 42 sec)

ChampSim completed all CPUs

=== Simulation ===
CPU 0 runs traces/429.mcf-217B.champsimtrace.xz

Region of Interest Statistics

CPU 0 cumulative IPC: 0.5364 instructions: 50000000 cycles: 93210492
CPU 0 Branch Prediction Accuracy: 98.95% MPKI: 1.194 Average ROB Occupancy at Mispredict: 124.2
Branch type MPKI
BRANCH_DIRECT_JUMP: 0
BRANCH_INDIRECT: 0
BRANCH_CONDITIONAL: 1.194
BRANCH_DIRECT_CALL: 0
BRANCH_INDIRECT_CALL: 0
BRANCH_RETURN: 0

cpu0->cpu0_STLB TOTAL        ACCESS:      58873 HIT:      57023 MISS:       1850 MSHR_MERGE:          0
cpu0->cpu0_STLB LOAD         ACCESS:      58873 HIT:      57023 MISS:       1850 MSHR_MERGE:          0
cpu0->cpu0_STLB RFO          ACCESS:          0 HIT:          0 MISS:          0 MSHR_MERGE:          0
cpu0->cpu0_STLB PREFETCH     ACCESS:          0 HIT:          0 MISS:          0 MSHR_MERGE:          0
cpu0->cpu0_STLB WRITE        ACCESS:          0 HIT:          0 MISS:          0 MSHR_MERGE:          0
cpu0->cpu0_STLB TRANSLATION  ACCESS:          0 HIT:          0 MISS:          0 MSHR_MERGE:          0
cpu0->cpu0_STLB PREFETCH REQUESTED:          0 ISSUED:          0 USEFUL:          0 USELESS:          0
cpu0->cpu0_STLB AVERAGE MISS LATENCY: 705.8 cycles
cpu0->cpu0_L2C TOTAL        ACCESS:   10990401 HIT:    5062016 MISS:    5928385 MSHR_MERGE:    2074008
cpu0->cpu0_L2C LOAD         ACCESS:    3030147 HIT:    2117846 MISS:     912301 MSHR_MERGE:     487666
cpu0->cpu0_L2C RFO          ACCESS:       3642 HIT:       3179 MISS:        463 MSHR_MERGE:          0
cpu0->cpu0_L2C PREFETCH     ACCESS:    7777815 HIT:    2767051 MISS:    5010764 MSHR_MERGE:    1586342
cpu0->cpu0_L2C WRITE        ACCESS:     175328 HIT:     173510 MISS:       1818 MSHR_MERGE:          0
cpu0->cpu0_L2C TRANSLATION  ACCESS:       3469 HIT:        430 MISS:       3039 MSHR_MERGE:          0
cpu0->cpu0_L2C PREFETCH REQUESTED:    7777845 ISSUED:    7777821 USEFUL:    2569734 USELESS:     853952
cpu0->cpu0_L2C AVERAGE MISS LATENCY: 113.1 cycles
cpu0->cpu0_L1I TOTAL        ACCESS:   10210040 HIT:   10210040 MISS:          0 MSHR_MERGE:          0
cpu0->cpu0_L1I LOAD         ACCESS:   10210040 HIT:   10210040 MISS:          0 MSHR_MERGE:          0
cpu0->cpu0_L1I RFO          ACCESS:          0 HIT:          0 MISS:          0 MSHR_MERGE:          0
cpu0->cpu0_L1I PREFETCH     ACCESS:          0 HIT:          0 MISS:          0 MSHR_MERGE:          0
cpu0->cpu0_L1I WRITE        ACCESS:          0 HIT:          0 MISS:          0 MSHR_MERGE:          0
cpu0->cpu0_L1I TRANSLATION  ACCESS:          0 HIT:          0 MISS:          0 MSHR_MERGE:          0
cpu0->cpu0_L1I PREFETCH REQUESTED:          0 ISSUED:          0 USEFUL:          0 USELESS:          0
cpu0->cpu0_L1I AVERAGE MISS LATENCY: - cycles
cpu0->cpu0_L1D TOTAL        ACCESS:   18179342 HIT:   15012609 MISS:    3166733 MSHR_MERGE:     129373
cpu0->cpu0_L1D LOAD         ACCESS:    9885493 HIT:    6728150 MISS:    3157343 MSHR_MERGE:     127094
cpu0->cpu0_L1D RFO          ACCESS:          0 HIT:          0 MISS:          0 MSHR_MERGE:          0
cpu0->cpu0_L1D PREFETCH     ACCESS:          0 HIT:          0 MISS:          0 MSHR_MERGE:          0
cpu0->cpu0_L1D WRITE        ACCESS:    8290142 HIT:    8284221 MISS:       5921 MSHR_MERGE:       2279
cpu0->cpu0_L1D TRANSLATION  ACCESS:       3707 HIT:        238 MISS:       3469 MSHR_MERGE:          0
cpu0->cpu0_L1D PREFETCH REQUESTED:          0 ISSUED:          0 USEFUL:          0 USELESS:          0
cpu0->cpu0_L1D AVERAGE MISS LATENCY: 42.58 cycles
cpu0->cpu0_ITLB TOTAL        ACCESS:    8755776 HIT:    8755776 MISS:          0 MSHR_MERGE:          0
cpu0->cpu0_ITLB LOAD         ACCESS:    8755776 HIT:    8755776 MISS:          0 MSHR_MERGE:          0
cpu0->cpu0_ITLB RFO          ACCESS:          0 HIT:          0 MISS:          0 MSHR_MERGE:          0
cpu0->cpu0_ITLB PREFETCH     ACCESS:          0 HIT:          0 MISS:          0 MSHR_MERGE:          0
cpu0->cpu0_ITLB WRITE        ACCESS:          0 HIT:          0 MISS:          0 MSHR_MERGE:          0
cpu0->cpu0_ITLB TRANSLATION  ACCESS:          0 HIT:          0 MISS:          0 MSHR_MERGE:          0
cpu0->cpu0_ITLB PREFETCH REQUESTED:          0 ISSUED:          0 USEFUL:          0 USELESS:          0
cpu0->cpu0_ITLB AVERAGE MISS LATENCY: - cycles
cpu0->cpu0_DTLB TOTAL        ACCESS:   16442813 HIT:   16358849 MISS:      83964 MSHR_MERGE:      25091
cpu0->cpu0_DTLB LOAD         ACCESS:   16442813 HIT:   16358849 MISS:      83964 MSHR_MERGE:      25091
cpu0->cpu0_DTLB RFO          ACCESS:          0 HIT:          0 MISS:          0 MSHR_MERGE:          0
cpu0->cpu0_DTLB PREFETCH     ACCESS:          0 HIT:          0 MISS:          0 MSHR_MERGE:          0
cpu0->cpu0_DTLB WRITE        ACCESS:          0 HIT:          0 MISS:          0 MSHR_MERGE:          0
cpu0->cpu0_DTLB TRANSLATION  ACCESS:          0 HIT:          0 MISS:          0 MSHR_MERGE:          0
cpu0->cpu0_DTLB PREFETCH REQUESTED:          0 ISSUED:          0 USEFUL:          0 USELESS:          0
cpu0->cpu0_DTLB AVERAGE MISS LATENCY: 26.21 cycles
cpu0->LLC TOTAL        ACCESS:    3997900 HIT:     633392 MISS:    3364508 MSHR_MERGE:          0
cpu0->LLC LOAD         ACCESS:     424635 HIT:      51356 MISS:     373279 MSHR_MERGE:          0
cpu0->LLC RFO          ACCESS:        463 HIT:        433 MISS:         30 MSHR_MERGE:          0
cpu0->LLC PREFETCH     ACCESS:    3424420 HIT:     552577 MISS:    2871843 MSHR_MERGE:          0
cpu0->LLC WRITE        ACCESS:     145343 HIT:      29023 MISS:     116320 MSHR_MERGE:          0
cpu0->LLC TRANSLATION  ACCESS:       3039 HIT:          3 MISS:       3036 MSHR_MERGE:          0
cpu0->LLC PREFETCH REQUESTED:          0 ISSUED:          0 USEFUL:          0 USELESS:          0
cpu0->LLC AVERAGE MISS LATENCY: 115.3 cycles

DRAM Statistics

Channel 0 RQ ROW_BUFFER_HIT:     810267
  ROW_BUFFER_MISS:    2437461
  AVG DBUS CONGESTED CYCLE: 19.84
Channel 0 WQ ROW_BUFFER_HIT:      23321
  ROW_BUFFER_MISS:     112867
  FULL:          0
Channel 0 REFRESHES ISSUED:       7768
