[VMEM] WARNING: physical memory size is smaller than virtual memory size.
WARNING: option --warmup_instructions is deprecated. Use --warmup-instructions instead.
WARNING: option --simulation_instructions is deprecated. Use --simulation-instructions instead.

*** ChampSim Multicore Out-of-Order Simulator ***
Warmup Instructions: 20000000
Simulation Instructions: 50000000
Number of CPUs: 1
Page size: 8192

Off-chip DRAM Size: 16 GiB Channels: 1 Width: 64-bit Data Rate: 3205 MT/s
Heartbeat CPU 0 instructions: 10000000 cycles: 7205292 heartbeat IPC: 1.388 cumulative IPC: 1.388 (Simulation time: 00 hr 01 min 13 sec)
Heartbeat CPU 0 instructions: 20000001 cycles: 11520163 heartbeat IPC: 2.318 cumulative IPC: 1.736 (Simulation time: 00 hr 02 min 08 sec)
Warmup finished CPU 0 instructions: 20000001 cycles: 11520163 cumulative IPC: 1.736 (Simulation time: 00 hr 02 min 08 sec)
Warmup complete CPU 0 instructions: 20000001 cycles: 11520163 cumulative IPC: 1.736 (Simulation time: 00 hr 02 min 08 sec)
Heartbeat CPU 0 instructions: 30000003 cycles: 63723263 heartbeat IPC: 0.1916 cumulative IPC: 0.1916 (Simulation time: 00 hr 06 min 45 sec)
Heartbeat CPU 0 instructions: 40000005 cycles: 115357351 heartbeat IPC: 0.1937 cumulative IPC: 0.1926 (Simulation time: 00 hr 11 min 23 sec)
Heartbeat CPU 0 instructions: 50000006 cycles: 167200200 heartbeat IPC: 0.1929 cumulative IPC: 0.1927 (Simulation time: 00 hr 16 min 10 sec)
Heartbeat CPU 0 instructions: 60000007 cycles: 218255787 heartbeat IPC: 0.1959 cumulative IPC: 0.1935 (Simulation time: 00 hr 20 min 45 sec)
Simulation finished CPU 0 instructions: 50000002 cycles: 258162011 cumulative IPC: 0.1937 (Simulation time: 00 hr 25 min 43 sec)
Simulation complete CPU 0 instructions: 50000002 cycles: 258162011 cumulative IPC: 0.1937 (Simulation time: 00 hr 25 min 43 sec)

ChampSim completed all CPUs

=== Simulation ===
CPU 0 runs traces/473.astar-359B.champsimtrace.xz

Region of Interest Statistics

CPU 0 cumulative IPC: 0.1937 instructions: 50000002 cycles: 258162011
CPU 0 Branch Prediction Accuracy: 93.2% MPKI: 13.43 Average ROB Occupancy at Mispredict: 44.98
Branch type MPKI
BRANCH_DIRECT_JUMP: 0
BRANCH_INDIRECT: 0
BRANCH_CONDITIONAL: 13.42
BRANCH_DIRECT_CALL: 0
BRANCH_INDIRECT_CALL: 0.00054
BRANCH_RETURN: 0

cpu0->cpu0_STLB TOTAL        ACCESS:    1275665 HIT:     889398 MISS:     386267 MSHR_MERGE:          0
cpu0->cpu0_STLB LOAD         ACCESS:    1275665 HIT:     889398 MISS:     386267 MSHR_MERGE:          0
cpu0->cpu0_STLB RFO          ACCESS:          0 HIT:          0 MISS:          0 MSHR_MERGE:          0
cpu0->cpu0_STLB PREFETCH     ACCESS:          0 HIT:          0 MISS:          0 MSHR_MERGE:          0
cpu0->cpu0_STLB WRITE        ACCESS:          0 HIT:          0 MISS:          0 MSHR_MERGE:          0
cpu0->cpu0_STLB TRANSLATION  ACCESS:          0 HIT:          0 MISS:          0 MSHR_MERGE:          0
cpu0->cpu0_STLB PREFETCH REQUESTED:          0 ISSUED:          0 USEFUL:          0 USELESS:          0
cpu0->cpu0_STLB AVERAGE MISS LATENCY: 482.8 cycles
cpu0->cpu0_L2C TOTAL        ACCESS:    6353512 HIT:    2683563 MISS:    3669949 MSHR_MERGE:     270811
cpu0->cpu0_L2C LOAD         ACCESS:    2178414 HIT:     858442 MISS:    1319972 MSHR_MERGE:      72449
cpu0->cpu0_L2C RFO          ACCESS:     821596 HIT:      95754 MISS:     725842 MSHR_MERGE:          0
cpu0->cpu0_L2C PREFETCH     ACCESS:    1453319 HIT:     499600 MISS:     953719 MSHR_MERGE:     198362
cpu0->cpu0_L2C WRITE        ACCESS:    1224902 HIT:    1224813 MISS:         89 MSHR_MERGE:          0
cpu0->cpu0_L2C TRANSLATION  ACCESS:     675281 HIT:       4954 MISS:     670327 MSHR_MERGE:          0
cpu0->cpu0_L2C PREFETCH REQUESTED:    1453321 ISSUED:    1453321 USEFUL:     201950 USELESS:     554462
cpu0->cpu0_L2C AVERAGE MISS LATENCY: 197.1 cycles
cpu0->cpu0_L1I TOTAL        ACCESS:     842995 HIT:     842984 MISS:         11 MSHR_MERGE:          1
cpu0->cpu0_L1I LOAD         ACCESS:     842995 HIT:     842984 MISS:         11 MSHR_MERGE:          1
cpu0->cpu0_L1I RFO          ACCESS:          0 HIT:          0 MISS:          0 MSHR_MERGE:          0
cpu0->cpu0_L1I PREFETCH     ACCESS:          0 HIT:          0 MISS:          0 MSHR_MERGE:          0
cpu0->cpu0_L1I WRITE        ACCESS:          0 HIT:          0 MISS:          0 MSHR_MERGE:          0
cpu0->cpu0_L1I TRANSLATION  ACCESS:          0 HIT:          0 MISS:          0 MSHR_MERGE:          0
cpu0->cpu0_L1I PREFETCH REQUESTED:          0 ISSUED:          0 USEFUL:          0 USELESS:          0
cpu0->cpu0_L1I AVERAGE MISS LATENCY: 172 cycles
cpu0->cpu0_L1D TOTAL        ACCESS:   20641843 HIT:   16173400 MISS:    4468443 MSHR_MERGE:     793161
cpu0->cpu0_L1D LOAD         ACCESS:   13550354 HIT:   10664042 MISS:    2886312 MSHR_MERGE:     707908
cpu0->cpu0_L1D RFO          ACCESS:          0 HIT:          0 MISS:          0 MSHR_MERGE:          0
cpu0->cpu0_L1D PREFETCH     ACCESS:          0 HIT:          0 MISS:          0 MSHR_MERGE:          0
cpu0->cpu0_L1D WRITE        ACCESS:    6314695 HIT:    5482951 MISS:     831744 MSHR_MERGE:      10147
cpu0->cpu0_L1D TRANSLATION  ACCESS:     776794 HIT:      26407 MISS:     750387 MSHR_MERGE:      75106
cpu0->cpu0_L1D PREFETCH REQUESTED:          0 ISSUED:          0 USEFUL:          0 USELESS:          0
cpu0->cpu0_L1D AVERAGE MISS LATENCY: 156.2 cycles
cpu0->cpu0_ITLB TOTAL        ACCESS:     839991 HIT:     839991 MISS:          0 MSHR_MERGE:          0
cpu0->cpu0_ITLB LOAD         ACCESS:     839991 HIT:     839991 MISS:          0 MSHR_MERGE:          0
cpu0->cpu0_ITLB RFO          ACCESS:          0 HIT:          0 MISS:          0 MSHR_MERGE:          0
cpu0->cpu0_ITLB PREFETCH     ACCESS:          0 HIT:          0 MISS:          0 MSHR_MERGE:          0
cpu0->cpu0_ITLB WRITE        ACCESS:          0 HIT:          0 MISS:          0 MSHR_MERGE:          0
cpu0->cpu0_ITLB TRANSLATION  ACCESS:          0 HIT:          0 MISS:          0 MSHR_MERGE:          0
cpu0->cpu0_ITLB PREFETCH REQUESTED:          0 ISSUED:          0 USEFUL:          0 USELESS:          0
cpu0->cpu0_ITLB AVERAGE MISS LATENCY: - cycles
cpu0->cpu0_DTLB TOTAL        ACCESS:   18851041 HIT:   16930973 MISS:    1920068 MSHR_MERGE:     644403
cpu0->cpu0_DTLB LOAD         ACCESS:   18851041 HIT:   16930973 MISS:    1920068 MSHR_MERGE:     644403
cpu0->cpu0_DTLB RFO          ACCESS:          0 HIT:          0 MISS:          0 MSHR_MERGE:          0
cpu0->cpu0_DTLB PREFETCH     ACCESS:          0 HIT:          0 MISS:          0 MSHR_MERGE:          0
cpu0->cpu0_DTLB WRITE        ACCESS:          0 HIT:          0 MISS:          0 MSHR_MERGE:          0
cpu0->cpu0_DTLB TRANSLATION  ACCESS:          0 HIT:          0 MISS:          0 MSHR_MERGE:          0
cpu0->cpu0_DTLB PREFETCH REQUESTED:          0 ISSUED:          0 USEFUL:          0 USELESS:          0
cpu0->cpu0_DTLB AVERAGE MISS LATENCY: 150.5 cycles
cpu0->LLC TOTAL        ACCESS:    4529158 HIT:     980205 MISS:    3548953 MSHR_MERGE:          0
cpu0->LLC LOAD         ACCESS:    1247523 HIT:     243837 MISS:    1003686 MSHR_MERGE:          0
cpu0->LLC RFO          ACCESS:     725842 HIT:     202642 MISS:     523200 MSHR_MERGE:          0
cpu0->LLC PREFETCH     ACCESS:     755357 HIT:      74788 MISS:     680569 MSHR_MERGE:          0
cpu0->LLC WRITE        ACCESS:    1130110 HIT:     388246 MISS:     741864 MSHR_MERGE:          0
cpu0->LLC TRANSLATION  ACCESS:     670326 HIT:      70692 MISS:     599634 MSHR_MERGE:          0
cpu0->LLC PREFETCH REQUESTED:          0 ISSUED:          0 USEFUL:          0 USELESS:          0
cpu0->LLC AVERAGE MISS LATENCY: 166.9 cycles

DRAM Statistics

Channel 0 RQ ROW_BUFFER_HIT:      70323
  ROW_BUFFER_MISS:    2736486
  AVG DBUS CONGESTED CYCLE: 22.47
Channel 0 WQ ROW_BUFFER_HIT:     136146
  ROW_BUFFER_MISS:     651510
  FULL:          0
Channel 0 REFRESHES ISSUED:      21513
