[VMEM] WARNING: physical memory size is smaller than virtual memory size.
WARNING: option --warmup_instructions is deprecated. Use --warmup-instructions instead.
WARNING: option --simulation_instructions is deprecated. Use --simulation-instructions instead.

*** ChampSim Multicore Out-of-Order Simulator ***
Warmup Instructions: 20000000
Simulation Instructions: 50000000
Number of CPUs: 1
Page size: 8192

Off-chip DRAM Size: 16 GiB Channels: 1 Width: 64-bit Data Rate: 3205 MT/s
Heartbeat CPU 0 instructions: 10000003 cycles: 6087296 heartbeat IPC: 1.643 cumulative IPC: 1.643 (Simulation time: 00 hr 01 min 03 sec)
Warmup finished CPU 0 instructions: 20000002 cycles: 12016916 cumulative IPC: 1.664 (Simulation time: 00 hr 02 min 14 sec)
Warmup complete CPU 0 instructions: 20000002 cycles: 12016916 cumulative IPC: 1.664 (Simulation time: 00 hr 02 min 14 sec)
Heartbeat CPU 0 instructions: 20000006 cycles: 12016917 heartbeat IPC: 1.686 cumulative IPC: 4 (Simulation time: 00 hr 02 min 14 sec)
Heartbeat CPU 0 instructions: 30000008 cycles: 38823545 heartbeat IPC: 0.373 cumulative IPC: 0.373 (Simulation time: 00 hr 05 min 21 sec)
Heartbeat CPU 0 instructions: 40000009 cycles: 50526507 heartbeat IPC: 0.8545 cumulative IPC: 0.5194 (Simulation time: 00 hr 06 min 53 sec)
Heartbeat CPU 0 instructions: 50000009 cycles: 70329375 heartbeat IPC: 0.505 cumulative IPC: 0.5145 (Simulation time: 00 hr 09 min 16 sec)
Heartbeat CPU 0 instructions: 60000010 cycles: 104659344 heartbeat IPC: 0.2913 cumulative IPC: 0.4318 (Simulation time: 00 hr 13 min 07 sec)
Simulation finished CPU 0 instructions: 50000000 cycles: 111339641 cumulative IPC: 0.4491 (Simulation time: 00 hr 15 min 21 sec)
Simulation complete CPU 0 instructions: 50000000 cycles: 111339641 cumulative IPC: 0.4491 (Simulation time: 00 hr 15 min 21 sec)

ChampSim completed all CPUs

=== Simulation ===
CPU 0 runs traces/429.mcf-217B.champsimtrace.xz

Region of Interest Statistics

CPU 0 cumulative IPC: 0.4491 instructions: 50000000 cycles: 111339641
CPU 0 Branch Prediction Accuracy: 98.95% MPKI: 1.194 Average ROB Occupancy at Mispredict: 120.6
Branch type MPKI
BRANCH_DIRECT_JUMP: 0
BRANCH_INDIRECT: 0
BRANCH_CONDITIONAL: 1.194
BRANCH_DIRECT_CALL: 0
BRANCH_INDIRECT_CALL: 0
BRANCH_RETURN: 0

cpu0->cpu0_STLB TOTAL        ACCESS:      57980 HIT:      56130 MISS:       1850 MSHR_MERGE:          0
cpu0->cpu0_STLB LOAD         ACCESS:      57980 HIT:      56130 MISS:       1850 MSHR_MERGE:          0
cpu0->cpu0_STLB RFO          ACCESS:          0 HIT:          0 MISS:          0 MSHR_MERGE:          0
cpu0->cpu0_STLB PREFETCH     ACCESS:          0 HIT:          0 MISS:          0 MSHR_MERGE:          0
cpu0->cpu0_STLB WRITE        ACCESS:          0 HIT:          0 MISS:          0 MSHR_MERGE:          0
cpu0->cpu0_STLB TRANSLATION  ACCESS:          0 HIT:          0 MISS:          0 MSHR_MERGE:          0
cpu0->cpu0_STLB PREFETCH REQUESTED:          0 ISSUED:          0 USEFUL:          0 USELESS:          0
cpu0->cpu0_STLB AVERAGE MISS LATENCY: 686.9 cycles
cpu0->cpu0_L2C TOTAL        ACCESS:    9863133 HIT:    5511097 MISS:    4352036 MSHR_MERGE:    1563347
cpu0->cpu0_L2C LOAD         ACCESS:    2598444 HIT:    1761094 MISS:     837350 MSHR_MERGE:     554744
cpu0->cpu0_L2C RFO          ACCESS:       1567 HIT:       1352 MISS:        215 MSHR_MERGE:          0
cpu0->cpu0_L2C PREFETCH     ACCESS:    7163518 HIT:    3652872 MISS:    3510646 MSHR_MERGE:    1008603
cpu0->cpu0_L2C WRITE        ACCESS:      96214 HIT:      95286 MISS:        928 MSHR_MERGE:          0
cpu0->cpu0_L2C TRANSLATION  ACCESS:       3390 HIT:        493 MISS:       2897 MSHR_MERGE:          0
cpu0->cpu0_L2C PREFETCH REQUESTED:    7163522 ISSUED:    7163522 USEFUL:    2296417 USELESS:     205442
cpu0->cpu0_L2C AVERAGE MISS LATENCY: 124.2 cycles
cpu0->cpu0_L1I TOTAL        ACCESS:    9482398 HIT:    9482398 MISS:          0 MSHR_MERGE:          0
cpu0->cpu0_L1I LOAD         ACCESS:    9482398 HIT:    9482398 MISS:          0 MSHR_MERGE:          0
cpu0->cpu0_L1I RFO          ACCESS:          0 HIT:          0 MISS:          0 MSHR_MERGE:          0
cpu0->cpu0_L1I PREFETCH     ACCESS:          0 HIT:          0 MISS:          0 MSHR_MERGE:          0
cpu0->cpu0_L1I WRITE        ACCESS:          0 HIT:          0 MISS:          0 MSHR_MERGE:          0
cpu0->cpu0_L1I TRANSLATION  ACCESS:          0 HIT:          0 MISS:          0 MSHR_MERGE:          0
cpu0->cpu0_L1I PREFETCH REQUESTED:          0 ISSUED:          0 USEFUL:          0 USELESS:          0
cpu0->cpu0_L1I AVERAGE MISS LATENCY: - cycles
cpu0->cpu0_L1D TOTAL        ACCESS:   16496783 HIT:   13805454 MISS:    2691329 MSHR_MERGE:      87896
cpu0->cpu0_L1D LOAD         ACCESS:    8626466 HIT:    5942376 MISS:    2684090 MSHR_MERGE:      85614
cpu0->cpu0_L1D RFO          ACCESS:          0 HIT:          0 MISS:          0 MSHR_MERGE:          0
cpu0->cpu0_L1D PREFETCH     ACCESS:          0 HIT:          0 MISS:          0 MSHR_MERGE:          0
cpu0->cpu0_L1D WRITE        ACCESS:    7866610 HIT:    7862761 MISS:       3849 MSHR_MERGE:       2282
cpu0->cpu0_L1D TRANSLATION  ACCESS:       3707 HIT:        317 MISS:       3390 MSHR_MERGE:          0
cpu0->cpu0_L1D PREFETCH REQUESTED:          0 ISSUED:          0 USEFUL:          0 USELESS:          0
cpu0->cpu0_L1D AVERAGE MISS LATENCY: 48.46 cycles
cpu0->cpu0_ITLB TOTAL        ACCESS:    8313521 HIT:    8313521 MISS:          0 MSHR_MERGE:          0
cpu0->cpu0_ITLB LOAD         ACCESS:    8313521 HIT:    8313521 MISS:          0 MSHR_MERGE:          0
cpu0->cpu0_ITLB RFO          ACCESS:          0 HIT:          0 MISS:          0 MSHR_MERGE:          0
cpu0->cpu0_ITLB PREFETCH     ACCESS:          0 HIT:          0 MISS:          0 MSHR_MERGE:          0
cpu0->cpu0_ITLB WRITE        ACCESS:          0 HIT:          0 MISS:          0 MSHR_MERGE:          0
cpu0->cpu0_ITLB TRANSLATION  ACCESS:          0 HIT:          0 MISS:          0 MSHR_MERGE:          0
cpu0->cpu0_ITLB PREFETCH REQUESTED:          0 ISSUED:          0 USEFUL:          0 USELESS:          0
cpu0->cpu0_ITLB AVERAGE MISS LATENCY: - cycles
cpu0->cpu0_DTLB TOTAL        ACCESS:   14964000 HIT:   14890086 MISS:      73914 MSHR_MERGE:      15934
cpu0->cpu0_DTLB LOAD         ACCESS:   14964000 HIT:   14890086 MISS:      73914 MSHR_MERGE:      15934
cpu0->cpu0_DTLB RFO          ACCESS:          0 HIT:          0 MISS:          0 MSHR_MERGE:          0
cpu0->cpu0_DTLB PREFETCH     ACCESS:          0 HIT:          0 MISS:          0 MSHR_MERGE:          0
cpu0->cpu0_DTLB WRITE        ACCESS:          0 HIT:          0 MISS:          0 MSHR_MERGE:          0
cpu0->cpu0_DTLB TRANSLATION  ACCESS:          0 HIT:          0 MISS:          0 MSHR_MERGE:          0
cpu0->cpu0_DTLB PREFETCH REQUESTED:          0 ISSUED:          0 USEFUL:          0 USELESS:          0
cpu0->cpu0_DTLB AVERAGE MISS LATENCY: 25.95 cycles
cpu0->LLC TOTAL        ACCESS:    2868639 HIT:      86057 MISS:    2782582 MSHR_MERGE:          0
cpu0->LLC LOAD         ACCESS:     282606 HIT:       4938 MISS:     277668 MSHR_MERGE:          0
cpu0->LLC RFO          ACCESS:        215 HIT:        132 MISS:         83 MSHR_MERGE:          0
cpu0->LLC PREFETCH     ACCESS:    2502040 HIT:        345 MISS:    2501695 MSHR_MERGE:          0
cpu0->LLC WRITE        ACCESS:      80881 HIT:      80577 MISS:        304 MSHR_MERGE:          0
cpu0->LLC TRANSLATION  ACCESS:       2897 HIT:         65 MISS:       2832 MSHR_MERGE:          0
cpu0->LLC PREFETCH REQUESTED:          0 ISSUED:          0 USEFUL:          0 USELESS:          0
cpu0->LLC AVERAGE MISS LATENCY: 160.8 cycles

DRAM Statistics

Channel 0 RQ ROW_BUFFER_HIT:     269098
  ROW_BUFFER_MISS:    2512272
  AVG DBUS CONGESTED CYCLE: 11.33
Channel 0 WQ ROW_BUFFER_HIT:      12532
  ROW_BUFFER_MISS:      64645
  FULL:          0
Channel 0 REFRESHES ISSUED:       9278
