[VMEM] WARNING: physical memory size is smaller than virtual memory size.
WARNING: option --warmup_instructions is deprecated. Use --warmup-instructions instead.
WARNING: option --simulation_instructions is deprecated. Use --simulation-instructions instead.

*** ChampSim Multicore Out-of-Order Simulator ***
Warmup Instructions: 20000000
Simulation Instructions: 50000000
Number of CPUs: 1
Page size: 8192

Off-chip DRAM Size: 16 GiB Channels: 1 Width: 64-bit Data Rate: 3205 MT/s
Heartbeat CPU 0 instructions: 10000000 cycles: 4302399 heartbeat IPC: 2.324 cumulative IPC: 2.324 (Simulation time: 00 hr 01 min 41 sec)
Heartbeat CPU 0 instructions: 20000000 cycles: 8596858 heartbeat IPC: 2.329 cumulative IPC: 2.326 (Simulation time: 00 hr 03 min 19 sec)
Warmup finished CPU 0 instructions: 20000000 cycles: 8596858 cumulative IPC: 2.326 (Simulation time: 00 hr 03 min 19 sec)
Warmup complete CPU 0 instructions: 20000000 cycles: 8596858 cumulative IPC: 2.326 (Simulation time: 00 hr 03 min 19 sec)
Heartbeat CPU 0 instructions: 30000002 cycles: 17335736 heartbeat IPC: 1.144 cumulative IPC: 1.144 (Simulation time: 00 hr 06 min 12 sec)
Heartbeat CPU 0 instructions: 40000003 cycles: 26084345 heartbeat IPC: 1.143 cumulative IPC: 1.144 (Simulation time: 00 hr 08 min 59 sec)
Heartbeat CPU 0 instructions: 50000003 cycles: 34820806 heartbeat IPC: 1.145 cumulative IPC: 1.144 (Simulation time: 00 hr 11 min 46 sec)
Heartbeat CPU 0 instructions: 60000005 cycles: 43552056 heartbeat IPC: 1.145 cumulative IPC: 1.144 (Simulation time: 00 hr 14 min 34 sec)
Simulation finished CPU 0 instructions: 50000001 cycles: 43706993 cumulative IPC: 1.144 (Simulation time: 00 hr 17 min 21 sec)
Simulation complete CPU 0 instructions: 50000001 cycles: 43706993 cumulative IPC: 1.144 (Simulation time: 00 hr 17 min 21 sec)

ChampSim completed all CPUs

=== Simulation ===
CPU 0 runs traces/A2/603.bwaves_s-1740B.champsimtrace.xz

Region of Interest Statistics

CPU 0 cumulative IPC: 1.144 instructions: 50000001 cycles: 43706993
CPU 0 Branch Prediction Accuracy: 99.97% MPKI: 0.00734 Average ROB Occupancy at Mispredict: 190
Branch type MPKI
BRANCH_DIRECT_JUMP: 0
BRANCH_INDIRECT: 0
BRANCH_CONDITIONAL: 0.00734
BRANCH_DIRECT_CALL: 0
BRANCH_INDIRECT_CALL: 0
BRANCH_RETURN: 0

cpu0->cpu0_STLB TOTAL        ACCESS:       7425 HIT:        365 MISS:       7060 MSHR_MERGE:          0
cpu0->cpu0_STLB LOAD         ACCESS:       7425 HIT:        365 MISS:       7060 MSHR_MERGE:          0
cpu0->cpu0_STLB RFO          ACCESS:          0 HIT:          0 MISS:          0 MSHR_MERGE:          0
cpu0->cpu0_STLB PREFETCH     ACCESS:          0 HIT:          0 MISS:          0 MSHR_MERGE:          0
cpu0->cpu0_STLB WRITE        ACCESS:          0 HIT:          0 MISS:          0 MSHR_MERGE:          0
cpu0->cpu0_STLB TRANSLATION  ACCESS:          0 HIT:          0 MISS:          0 MSHR_MERGE:          0
cpu0->cpu0_STLB PREFETCH REQUESTED:          0 ISSUED:          0 USEFUL:          0 USELESS:          0
cpu0->cpu0_STLB AVERAGE MISS LATENCY: 686.9 cycles
cpu0->cpu0_L2C TOTAL        ACCESS:    3287168 HIT:    1418249 MISS:    1868919 MSHR_MERGE:     393582
cpu0->cpu0_L2C LOAD         ACCESS:    1020312 HIT:     776292 MISS:     244020 MSHR_MERGE:      96547
cpu0->cpu0_L2C RFO          ACCESS:      32934 HIT:       8572 MISS:      24362 MSHR_MERGE:          0
cpu0->cpu0_L2C PREFETCH     ACCESS:    2183873 HIT:     594094 MISS:    1589779 MSHR_MERGE:     297035
cpu0->cpu0_L2C WRITE        ACCESS:      36493 HIT:      36196 MISS:        297 MSHR_MERGE:          0
cpu0->cpu0_L2C TRANSLATION  ACCESS:      13556 HIT:       3095 MISS:      10461 MSHR_MERGE:          0
cpu0->cpu0_L2C PREFETCH REQUESTED:    2183960 ISSUED:    2183869 USEFUL:     785167 USELESS:          5
cpu0->cpu0_L2C AVERAGE MISS LATENCY: 92.45 cycles
cpu0->cpu0_L1I TOTAL        ACCESS:   11934418 HIT:   11934418 MISS:          0 MSHR_MERGE:          0
cpu0->cpu0_L1I LOAD         ACCESS:   11934418 HIT:   11934418 MISS:          0 MSHR_MERGE:          0
cpu0->cpu0_L1I RFO          ACCESS:          0 HIT:          0 MISS:          0 MSHR_MERGE:          0
cpu0->cpu0_L1I PREFETCH     ACCESS:          0 HIT:          0 MISS:          0 MSHR_MERGE:          0
cpu0->cpu0_L1I WRITE        ACCESS:          0 HIT:          0 MISS:          0 MSHR_MERGE:          0
cpu0->cpu0_L1I TRANSLATION  ACCESS:          0 HIT:          0 MISS:          0 MSHR_MERGE:          0
cpu0->cpu0_L1I PREFETCH REQUESTED:          0 ISSUED:          0 USEFUL:          0 USELESS:          0
cpu0->cpu0_L1I AVERAGE MISS LATENCY: - cycles
cpu0->cpu0_L1D TOTAL        ACCESS:   17125628 HIT:   15994638 MISS:    1130990 MSHR_MERGE:      64087
cpu0->cpu0_L1D LOAD         ACCESS:   14294886 HIT:   13233037 MISS:    1061849 MSHR_MERGE:      41488
cpu0->cpu0_L1D RFO          ACCESS:          0 HIT:          0 MISS:          0 MSHR_MERGE:          0
cpu0->cpu0_L1D PREFETCH     ACCESS:          0 HIT:          0 MISS:          0 MSHR_MERGE:          0
cpu0->cpu0_L1D WRITE        ACCESS:    2816699 HIT:    2761331 MISS:      55368 MSHR_MERGE:      22382
cpu0->cpu0_L1D TRANSLATION  ACCESS:      14043 HIT:        270 MISS:      13773 MSHR_MERGE:        217
cpu0->cpu0_L1D PREFETCH REQUESTED:          0 ISSUED:          0 USEFUL:          0 USELESS:          0
cpu0->cpu0_L1D AVERAGE MISS LATENCY: 32.64 cycles
cpu0->cpu0_ITLB TOTAL        ACCESS:   10793874 HIT:   10793874 MISS:          0 MSHR_MERGE:          0
cpu0->cpu0_ITLB LOAD         ACCESS:   10793874 HIT:   10793874 MISS:          0 MSHR_MERGE:          0
cpu0->cpu0_ITLB RFO          ACCESS:          0 HIT:          0 MISS:          0 MSHR_MERGE:          0
cpu0->cpu0_ITLB PREFETCH     ACCESS:          0 HIT:          0 MISS:          0 MSHR_MERGE:          0
cpu0->cpu0_ITLB WRITE        ACCESS:          0 HIT:          0 MISS:          0 MSHR_MERGE:          0
cpu0->cpu0_ITLB TRANSLATION  ACCESS:          0 HIT:          0 MISS:          0 MSHR_MERGE:          0
cpu0->cpu0_ITLB PREFETCH REQUESTED:          0 ISSUED:          0 USEFUL:          0 USELESS:          0
cpu0->cpu0_ITLB AVERAGE MISS LATENCY: - cycles
cpu0->cpu0_DTLB TOTAL        ACCESS:   16461734 HIT:   16449034 MISS:      12700 MSHR_MERGE:       5275
cpu0->cpu0_DTLB LOAD         ACCESS:   16461734 HIT:   16449034 MISS:      12700 MSHR_MERGE:       5275
cpu0->cpu0_DTLB RFO          ACCESS:          0 HIT:          0 MISS:          0 MSHR_MERGE:          0
cpu0->cpu0_DTLB PREFETCH     ACCESS:          0 HIT:          0 MISS:          0 MSHR_MERGE:          0
cpu0->cpu0_DTLB WRITE        ACCESS:          0 HIT:          0 MISS:          0 MSHR_MERGE:          0
cpu0->cpu0_DTLB TRANSLATION  ACCESS:          0 HIT:          0 MISS:          0 MSHR_MERGE:          0
cpu0->cpu0_DTLB PREFETCH REQUESTED:          0 ISSUED:          0 USEFUL:          0 USELESS:          0
cpu0->cpu0_DTLB AVERAGE MISS LATENCY: 658.1 cycles
cpu0->LLC TOTAL        ACCESS:    1499761 HIT:     375312 MISS:    1124449 MSHR_MERGE:     109025
cpu0->LLC LOAD         ACCESS:     147473 HIT:     100814 MISS:      46659 MSHR_MERGE:       9492
cpu0->LLC RFO          ACCESS:      24362 HIT:          0 MISS:      24362 MSHR_MERGE:          0
cpu0->LLC PREFETCH     ACCESS:    1292744 HIT:     271920 MISS:    1020824 MSHR_MERGE:      99533
cpu0->LLC WRITE        ACCESS:      24721 HIT:       2571 MISS:      22150 MSHR_MERGE:          0
cpu0->LLC TRANSLATION  ACCESS:      10461 HIT:          7 MISS:      10454 MSHR_MERGE:          0
cpu0->LLC PREFETCH REQUESTED:          0 ISSUED:          0 USEFUL:          0 USELESS:          0
cpu0->LLC AVERAGE MISS LATENCY: 126.6 cycles

DRAM Statistics

Channel 0 RQ ROW_BUFFER_HIT:      19513
  ROW_BUFFER_MISS:     973761
  AVG DBUS CONGESTED CYCLE: 4.184
Channel 0 WQ ROW_BUFFER_HIT:       1723
  ROW_BUFFER_MISS:      24175
  FULL:          0
Channel 0 REFRESHES ISSUED:       3642
