[VMEM] WARNING: physical memory size is smaller than virtual memory size.
WARNING: option --warmup_instructions is deprecated. Use --warmup-instructions instead.
WARNING: option --simulation_instructions is deprecated. Use --simulation-instructions instead.

*** ChampSim Multicore Out-of-Order Simulator ***
Warmup Instructions: 20000000
Simulation Instructions: 50000000
Number of CPUs: 1
Page size: 8192

Off-chip DRAM Size: 16 GiB Channels: 1 Width: 64-bit Data Rate: 3205 MT/s
Heartbeat CPU 0 instructions: 10000000 cycles: 6987201 heartbeat IPC: 1.431 cumulative IPC: 1.431 (Simulation time: 00 hr 02 min 27 sec)
Heartbeat CPU 0 instructions: 20000001 cycles: 11064163 heartbeat IPC: 2.453 cumulative IPC: 1.808 (Simulation time: 00 hr 04 min 19 sec)
Warmup finished CPU 0 instructions: 20000001 cycles: 11064163 cumulative IPC: 1.808 (Simulation time: 00 hr 04 min 19 sec)
Warmup complete CPU 0 instructions: 20000001 cycles: 11064163 cumulative IPC: 1.808 (Simulation time: 00 hr 04 min 19 sec)
Heartbeat CPU 0 instructions: 30000003 cycles: 60858503 heartbeat IPC: 0.2008 cumulative IPC: 0.2008 (Simulation time: 00 hr 13 min 52 sec)
Heartbeat CPU 0 instructions: 40000005 cycles: 111229385 heartbeat IPC: 0.1985 cumulative IPC: 0.1997 (Simulation time: 00 hr 24 min 11 sec)
Heartbeat CPU 0 instructions: 50000006 cycles: 161708988 heartbeat IPC: 0.1981 cumulative IPC: 0.1991 (Simulation time: 00 hr 34 min 19 sec)
Heartbeat CPU 0 instructions: 60000007 cycles: 212207528 heartbeat IPC: 0.198 cumulative IPC: 0.1989 (Simulation time: 00 hr 44 min 14 sec)
Simulation finished CPU 0 instructions: 50000002 cycles: 250321092 cumulative IPC: 0.1997 (Simulation time: 00 hr 53 min 59 sec)
Simulation complete CPU 0 instructions: 50000002 cycles: 250321092 cumulative IPC: 0.1997 (Simulation time: 00 hr 53 min 59 sec)

ChampSim completed all CPUs

=== Simulation ===
CPU 0 runs traces/A2/473.astar-359B.champsimtrace.xz

Region of Interest Statistics

CPU 0 cumulative IPC: 0.1997 instructions: 50000002 cycles: 250321092
CPU 0 Branch Prediction Accuracy: 93.2% MPKI: 13.43 Average ROB Occupancy at Mispredict: 44.43
Branch type MPKI
BRANCH_DIRECT_JUMP: 0
BRANCH_INDIRECT: 0
BRANCH_CONDITIONAL: 13.42
BRANCH_DIRECT_CALL: 0
BRANCH_INDIRECT_CALL: 0.00054
BRANCH_RETURN: 0

cpu0->cpu0_STLB TOTAL        ACCESS:    1275605 HIT:     889343 MISS:     386262 MSHR_MERGE:          0
cpu0->cpu0_STLB LOAD         ACCESS:    1275605 HIT:     889343 MISS:     386262 MSHR_MERGE:          0
cpu0->cpu0_STLB RFO          ACCESS:          0 HIT:          0 MISS:          0 MSHR_MERGE:          0
cpu0->cpu0_STLB PREFETCH     ACCESS:          0 HIT:          0 MISS:          0 MSHR_MERGE:          0
cpu0->cpu0_STLB WRITE        ACCESS:          0 HIT:          0 MISS:          0 MSHR_MERGE:          0
cpu0->cpu0_STLB TRANSLATION  ACCESS:          0 HIT:          0 MISS:          0 MSHR_MERGE:          0
cpu0->cpu0_STLB PREFETCH REQUESTED:          0 ISSUED:          0 USEFUL:          0 USELESS:          0
cpu0->cpu0_STLB AVERAGE MISS LATENCY: 554.2 cycles
cpu0->cpu0_L2C TOTAL        ACCESS:    4747102 HIT:    2086461 MISS:    2660641 MSHR_MERGE:       8277
cpu0->cpu0_L2C LOAD         ACCESS:    1775433 HIT:     738220 MISS:    1037213 MSHR_MERGE:        520
cpu0->cpu0_L2C RFO          ACCESS:     767629 HIT:      48490 MISS:     719139 MSHR_MERGE:          0
cpu0->cpu0_L2C PREFETCH     ACCESS:     385411 HIT:     122915 MISS:     262496 MSHR_MERGE:       7757
cpu0->cpu0_L2C WRITE        ACCESS:    1168863 HIT:    1168828 MISS:         35 MSHR_MERGE:          0
cpu0->cpu0_L2C TRANSLATION  ACCESS:     649766 HIT:       8008 MISS:     641758 MSHR_MERGE:          0
cpu0->cpu0_L2C PREFETCH REQUESTED:     385411 ISSUED:     385411 USEFUL:       7161 USELESS:       7152
cpu0->cpu0_L2C AVERAGE MISS LATENCY: 231.7 cycles
cpu0->cpu0_L1I TOTAL        ACCESS:     851408 HIT:     851401 MISS:          7 MSHR_MERGE:          0
cpu0->cpu0_L1I LOAD         ACCESS:     851408 HIT:     851401 MISS:          7 MSHR_MERGE:          0
cpu0->cpu0_L1I RFO          ACCESS:          0 HIT:          0 MISS:          0 MSHR_MERGE:          0
cpu0->cpu0_L1I PREFETCH     ACCESS:          0 HIT:          0 MISS:          0 MSHR_MERGE:          0
cpu0->cpu0_L1I WRITE        ACCESS:          0 HIT:          0 MISS:          0 MSHR_MERGE:          0
cpu0->cpu0_L1I TRANSLATION  ACCESS:          0 HIT:          0 MISS:          0 MSHR_MERGE:          0
cpu0->cpu0_L1I PREFETCH REQUESTED:          0 ISSUED:          0 USEFUL:          0 USELESS:          0
cpu0->cpu0_L1I AVERAGE MISS LATENCY: 177.9 cycles
cpu0->cpu0_L1D TOTAL        ACCESS:   19849849 HIT:   15947715 MISS:    3902134 MSHR_MERGE:     709307
cpu0->cpu0_L1D LOAD         ACCESS:   12758182 HIT:   10368694 MISS:    2389488 MSHR_MERGE:     614059
cpu0->cpu0_L1D RFO          ACCESS:          0 HIT:          0 MISS:          0 MSHR_MERGE:          0
cpu0->cpu0_L1D PREFETCH     ACCESS:          0 HIT:          0 MISS:          0 MSHR_MERGE:          0
cpu0->cpu0_L1D WRITE        ACCESS:    6314427 HIT:    5546721 MISS:     767706 MSHR_MERGE:         74
cpu0->cpu0_L1D TRANSLATION  ACCESS:     777240 HIT:      32300 MISS:     744940 MSHR_MERGE:      95174
cpu0->cpu0_L1D PREFETCH REQUESTED:          0 ISSUED:          0 USEFUL:          0 USELESS:          0
cpu0->cpu0_L1D AVERAGE MISS LATENCY: 182.9 cycles
cpu0->cpu0_ITLB TOTAL        ACCESS:     848826 HIT:     848826 MISS:          0 MSHR_MERGE:          0
cpu0->cpu0_ITLB LOAD         ACCESS:     848826 HIT:     848826 MISS:          0 MSHR_MERGE:          0
cpu0->cpu0_ITLB RFO          ACCESS:          0 HIT:          0 MISS:          0 MSHR_MERGE:          0
cpu0->cpu0_ITLB PREFETCH     ACCESS:          0 HIT:          0 MISS:          0 MSHR_MERGE:          0
cpu0->cpu0_ITLB WRITE        ACCESS:          0 HIT:          0 MISS:          0 MSHR_MERGE:          0
cpu0->cpu0_ITLB TRANSLATION  ACCESS:          0 HIT:          0 MISS:          0 MSHR_MERGE:          0
cpu0->cpu0_ITLB PREFETCH REQUESTED:          0 ISSUED:          0 USEFUL:          0 USELESS:          0
cpu0->cpu0_ITLB AVERAGE MISS LATENCY: - cycles
cpu0->cpu0_DTLB TOTAL        ACCESS:   18148283 HIT:   16263823 MISS:    1884460 MSHR_MERGE:     608855
cpu0->cpu0_DTLB LOAD         ACCESS:   18148283 HIT:   16263823 MISS:    1884460 MSHR_MERGE:     608855
cpu0->cpu0_DTLB RFO          ACCESS:          0 HIT:          0 MISS:          0 MSHR_MERGE:          0
cpu0->cpu0_DTLB PREFETCH     ACCESS:          0 HIT:          0 MISS:          0 MSHR_MERGE:          0
cpu0->cpu0_DTLB WRITE        ACCESS:          0 HIT:          0 MISS:          0 MSHR_MERGE:          0
cpu0->cpu0_DTLB TRANSLATION  ACCESS:          0 HIT:          0 MISS:          0 MSHR_MERGE:          0
cpu0->cpu0_DTLB PREFETCH REQUESTED:          0 ISSUED:          0 USEFUL:          0 USELESS:          0
cpu0->cpu0_DTLB AVERAGE MISS LATENCY: 172.1 cycles
cpu0->LLC TOTAL        ACCESS:    3771422 HIT:    1081692 MISS:    2689730 MSHR_MERGE:      40295
cpu0->LLC LOAD         ACCESS:    1036693 HIT:     253974 MISS:     782719 MSHR_MERGE:       3622
cpu0->LLC RFO          ACCESS:     719136 HIT:     206315 MISS:     512821 MSHR_MERGE:          0
cpu0->LLC PREFETCH     ACCESS:     254739 HIT:     158762 MISS:      95977 MSHR_MERGE:      36673
cpu0->LLC WRITE        ACCESS:    1119096 HIT:     382375 MISS:     736721 MSHR_MERGE:          0
cpu0->LLC TRANSLATION  ACCESS:     641758 HIT:      80266 MISS:     561492 MSHR_MERGE:          0
cpu0->LLC PREFETCH REQUESTED:          0 ISSUED:          0 USEFUL:          0 USELESS:          0
cpu0->LLC AVERAGE MISS LATENCY: 201.2 cycles

DRAM Statistics

Channel 0 RQ ROW_BUFFER_HIT:      65241
  ROW_BUFFER_MISS:    1847305
  AVG DBUS CONGESTED CYCLE: 20.08
Channel 0 WQ ROW_BUFFER_HIT:     117194
  ROW_BUFFER_MISS:     650443
  FULL:         29
Channel 0 REFRESHES ISSUED:      20860
