[VMEM] WARNING: physical memory size is smaller than virtual memory size.
WARNING: option --warmup_instructions is deprecated. Use --warmup-instructions instead.
WARNING: option --simulation_instructions is deprecated. Use --simulation-instructions instead.

*** ChampSim Multicore Out-of-Order Simulator ***
Warmup Instructions: 20000000
Simulation Instructions: 50000000
Number of CPUs: 1
Page size: 8192

Off-chip DRAM Size: 16 GiB Channels: 1 Width: 64-bit Data Rate: 3205 MT/s
Heartbeat CPU 0 instructions: 10000000 cycles: 8239195 heartbeat IPC: 1.214 cumulative IPC: 1.214 (Simulation time: 00 hr 02 min 44 sec)
Heartbeat CPU 0 instructions: 20000000 cycles: 15266659 heartbeat IPC: 1.423 cumulative IPC: 1.31 (Simulation time: 00 hr 05 min 16 sec)
Warmup finished CPU 0 instructions: 20000000 cycles: 15266659 cumulative IPC: 1.31 (Simulation time: 00 hr 05 min 16 sec)
Warmup complete CPU 0 instructions: 20000000 cycles: 15266659 cumulative IPC: 1.31 (Simulation time: 00 hr 05 min 16 sec)
Heartbeat CPU 0 instructions: 30000002 cycles: 44163509 heartbeat IPC: 0.3461 cumulative IPC: 0.3461 (Simulation time: 00 hr 11 min 39 sec)
Heartbeat CPU 0 instructions: 40000004 cycles: 73473801 heartbeat IPC: 0.3412 cumulative IPC: 0.3436 (Simulation time: 00 hr 18 min 17 sec)
Heartbeat CPU 0 instructions: 50000004 cycles: 102740913 heartbeat IPC: 0.3417 cumulative IPC: 0.343 (Simulation time: 00 hr 24 min 37 sec)
Heartbeat CPU 0 instructions: 60000007 cycles: 131078090 heartbeat IPC: 0.3529 cumulative IPC: 0.3454 (Simulation time: 00 hr 30 min 58 sec)
Simulation finished CPU 0 instructions: 50000001 cycles: 143022215 cumulative IPC: 0.3496 (Simulation time: 00 hr 37 min 03 sec)
Simulation complete CPU 0 instructions: 50000001 cycles: 143022215 cumulative IPC: 0.3496 (Simulation time: 00 hr 37 min 03 sec)

ChampSim completed all CPUs

=== Simulation ===
CPU 0 runs traces/A2/620.omnetpp_s-874B.champsimtrace.xz

Region of Interest Statistics

CPU 0 cumulative IPC: 0.3496 instructions: 50000001 cycles: 143022215
CPU 0 Branch Prediction Accuracy: 96.16% MPKI: 7.99 Average ROB Occupancy at Mispredict: 59.2
Branch type MPKI
BRANCH_DIRECT_JUMP: 0.9384
BRANCH_INDIRECT: 0.1208
BRANCH_CONDITIONAL: 5.805
BRANCH_DIRECT_CALL: 0.00236
BRANCH_INDIRECT_CALL: 0.7298
BRANCH_RETURN: 0.3936

cpu0->cpu0_STLB TOTAL        ACCESS:     828706 HIT:     691608 MISS:     137098 MSHR_MERGE:          0
cpu0->cpu0_STLB LOAD         ACCESS:     828706 HIT:     691608 MISS:     137098 MSHR_MERGE:          0
cpu0->cpu0_STLB RFO          ACCESS:          0 HIT:          0 MISS:          0 MSHR_MERGE:          0
cpu0->cpu0_STLB PREFETCH     ACCESS:          0 HIT:          0 MISS:          0 MSHR_MERGE:          0
cpu0->cpu0_STLB WRITE        ACCESS:          0 HIT:          0 MISS:          0 MSHR_MERGE:          0
cpu0->cpu0_STLB TRANSLATION  ACCESS:          0 HIT:          0 MISS:          0 MSHR_MERGE:          0
cpu0->cpu0_STLB PREFETCH REQUESTED:          0 ISSUED:          0 USEFUL:          0 USELESS:          0
cpu0->cpu0_STLB AVERAGE MISS LATENCY: 338.6 cycles
cpu0->cpu0_L2C TOTAL        ACCESS:    1898364 HIT:     857585 MISS:    1040779 MSHR_MERGE:          4
cpu0->cpu0_L2C LOAD         ACCESS:     933845 HIT:     285644 MISS:     648201 MSHR_MERGE:          1
cpu0->cpu0_L2C RFO          ACCESS:     139168 HIT:      32517 MISS:     106651 MSHR_MERGE:          0
cpu0->cpu0_L2C PREFETCH     ACCESS:      25260 HIT:      12227 MISS:      13033 MSHR_MERGE:          3
cpu0->cpu0_L2C WRITE        ACCESS:     506806 HIT:     504547 MISS:       2259 MSHR_MERGE:          0
cpu0->cpu0_L2C TRANSLATION  ACCESS:     293285 HIT:      22650 MISS:     270635 MSHR_MERGE:          0
cpu0->cpu0_L2C PREFETCH REQUESTED:      25260 ISSUED:      25260 USEFUL:       7455 USELESS:       5487
cpu0->cpu0_L2C AVERAGE MISS LATENCY: 138.2 cycles
cpu0->cpu0_L1I TOTAL        ACCESS:    7919109 HIT:    7893959 MISS:      25150 MSHR_MERGE:       6664
cpu0->cpu0_L1I LOAD         ACCESS:    7919109 HIT:    7893959 MISS:      25150 MSHR_MERGE:       6664
cpu0->cpu0_L1I RFO          ACCESS:          0 HIT:          0 MISS:          0 MSHR_MERGE:          0
cpu0->cpu0_L1I PREFETCH     ACCESS:          0 HIT:          0 MISS:          0 MSHR_MERGE:          0
cpu0->cpu0_L1I WRITE        ACCESS:          0 HIT:          0 MISS:          0 MSHR_MERGE:          0
cpu0->cpu0_L1I TRANSLATION  ACCESS:          0 HIT:          0 MISS:          0 MSHR_MERGE:          0
cpu0->cpu0_L1I PREFETCH REQUESTED:          0 ISSUED:          0 USEFUL:          0 USELESS:          0
cpu0->cpu0_L1I AVERAGE MISS LATENCY: 27.63 cycles
cpu0->cpu0_L1D TOTAL        ACCESS:   18756720 HIT:   16951047 MISS:    1805673 MSHR_MERGE:     457853
cpu0->cpu0_L1D LOAD         ACCESS:    9418126 HIT:    8291513 MISS:    1126613 MSHR_MERGE:     211252
cpu0->cpu0_L1D RFO          ACCESS:          0 HIT:          0 MISS:          0 MSHR_MERGE:          0
cpu0->cpu0_L1D PREFETCH     ACCESS:          0 HIT:          0 MISS:          0 MSHR_MERGE:          0
cpu0->cpu0_L1D WRITE        ACCESS:    9037327 HIT:    8651857 MISS:     385470 MSHR_MERGE:     246296
cpu0->cpu0_L1D TRANSLATION  ACCESS:     301267 HIT:       7677 MISS:     293590 MSHR_MERGE:        305
cpu0->cpu0_L1D PREFETCH REQUESTED:          0 ISSUED:          0 USEFUL:          0 USELESS:          0
cpu0->cpu0_L1D AVERAGE MISS LATENCY: 113.9 cycles
cpu0->cpu0_ITLB TOTAL        ACCESS:    7260978 HIT:    7260774 MISS:        204 MSHR_MERGE:        100
cpu0->cpu0_ITLB LOAD         ACCESS:    7260978 HIT:    7260774 MISS:        204 MSHR_MERGE:        100
cpu0->cpu0_ITLB RFO          ACCESS:          0 HIT:          0 MISS:          0 MSHR_MERGE:          0
cpu0->cpu0_ITLB PREFETCH     ACCESS:          0 HIT:          0 MISS:          0 MSHR_MERGE:          0
cpu0->cpu0_ITLB WRITE        ACCESS:          0 HIT:          0 MISS:          0 MSHR_MERGE:          0
cpu0->cpu0_ITLB TRANSLATION  ACCESS:          0 HIT:          0 MISS:          0 MSHR_MERGE:          0
cpu0->cpu0_ITLB PREFETCH REQUESTED:          0 ISSUED:          0 USEFUL:          0 USELESS:          0
cpu0->cpu0_ITLB AVERAGE MISS LATENCY: 184.8 cycles
cpu0->cpu0_DTLB TOTAL        ACCESS:   17196014 HIT:   16246082 MISS:     949932 MSHR_MERGE:     121329
cpu0->cpu0_DTLB LOAD         ACCESS:   17196014 HIT:   16246082 MISS:     949932 MSHR_MERGE:     121329
cpu0->cpu0_DTLB RFO          ACCESS:          0 HIT:          0 MISS:          0 MSHR_MERGE:          0
cpu0->cpu0_DTLB PREFETCH     ACCESS:          0 HIT:          0 MISS:          0 MSHR_MERGE:          0
cpu0->cpu0_DTLB WRITE        ACCESS:          0 HIT:          0 MISS:          0 MSHR_MERGE:          0
cpu0->cpu0_DTLB TRANSLATION  ACCESS:          0 HIT:          0 MISS:          0 MSHR_MERGE:          0
cpu0->cpu0_DTLB PREFETCH REQUESTED:          0 ISSUED:          0 USEFUL:          0 USELESS:          0
cpu0->cpu0_DTLB AVERAGE MISS LATENCY: 60.17 cycles
cpu0->LLC TOTAL        ACCESS:    1418483 HIT:     343756 MISS:    1074727 MSHR_MERGE:          0
cpu0->LLC LOAD         ACCESS:     648200 HIT:     134537 MISS:     513663 MSHR_MERGE:          0
cpu0->LLC RFO          ACCESS:     106651 HIT:      27744 MISS:      78907 MSHR_MERGE:          0
cpu0->LLC PREFETCH     ACCESS:      13030 HIT:        754 MISS:      12276 MSHR_MERGE:          0
cpu0->LLC WRITE        ACCESS:     379967 HIT:     136755 MISS:     243212 MSHR_MERGE:          0
cpu0->LLC TRANSLATION  ACCESS:     270635 HIT:      43966 MISS:     226669 MSHR_MERGE:          0
cpu0->LLC PREFETCH REQUESTED:          0 ISSUED:          0 USEFUL:          0 USELESS:          0
cpu0->LLC AVERAGE MISS LATENCY: 119.5 cycles

DRAM Statistics

Channel 0 RQ ROW_BUFFER_HIT:      13619
  ROW_BUFFER_MISS:     817859
  AVG DBUS CONGESTED CYCLE: 23.67
Channel 0 WQ ROW_BUFFER_HIT:      73155
  ROW_BUFFER_MISS:     196499
  FULL:          0
Channel 0 REFRESHES ISSUED:      11918
