[VMEM] WARNING: physical memory size is smaller than virtual memory size.

*** ChampSim Multicore Out-of-Order Simulator ***
Warmup Instructions: 100000000
Simulation Instructions: 500000000
Number of CPUs: 1
Page size: 4096

Off-chip DRAM Size: 16 GiB Channels: 1 Width: 64-bit Data Rate: 3205 MT/s
Heartbeat CPU 0 instructions: 10000002 cycles: 3193559 heartbeat IPC: 3.131 cumulative IPC: 3.131 (Simulation time: 00 hr 01 min 19 sec)
Heartbeat CPU 0 instructions: 20000002 cycles: 6303406 heartbeat IPC: 3.216 cumulative IPC: 3.173 (Simulation time: 00 hr 02 min 37 sec)
Heartbeat CPU 0 instructions: 30000006 cycles: 9393527 heartbeat IPC: 3.236 cumulative IPC: 3.194 (Simulation time: 00 hr 03 min 54 sec)
Heartbeat CPU 0 instructions: 40000007 cycles: 12496812 heartbeat IPC: 3.222 cumulative IPC: 3.201 (Simulation time: 00 hr 05 min 13 sec)
Heartbeat CPU 0 instructions: 50000008 cycles: 15574470 heartbeat IPC: 3.249 cumulative IPC: 3.21 (Simulation time: 00 hr 06 min 32 sec)
Heartbeat CPU 0 instructions: 60000010 cycles: 18683553 heartbeat IPC: 3.216 cumulative IPC: 3.211 (Simulation time: 00 hr 07 min 52 sec)
Heartbeat CPU 0 instructions: 70000013 cycles: 21770114 heartbeat IPC: 3.24 cumulative IPC: 3.215 (Simulation time: 00 hr 09 min 11 sec)
Heartbeat CPU 0 instructions: 80000016 cycles: 24872331 heartbeat IPC: 3.224 cumulative IPC: 3.216 (Simulation time: 00 hr 10 min 30 sec)
Heartbeat CPU 0 instructions: 90000019 cycles: 27956332 heartbeat IPC: 3.243 cumulative IPC: 3.219 (Simulation time: 00 hr 11 min 48 sec)
Warmup finished CPU 0 instructions: 100000004 cycles: 30948353 cumulative IPC: 3.231 (Simulation time: 00 hr 13 min 05 sec)
Warmup complete CPU 0 instructions: 100000004 cycles: 30948353 cumulative IPC: 3.231 (Simulation time: 00 hr 13 min 05 sec)
Heartbeat CPU 0 instructions: 100000019 cycles: 30948356 heartbeat IPC: 3.342 cumulative IPC: 5 (Simulation time: 00 hr 13 min 05 sec)
Heartbeat CPU 0 instructions: 110000019 cycles: 75471334 heartbeat IPC: 0.2246 cumulative IPC: 0.2246 (Simulation time: 00 hr 23 min 09 sec)
Heartbeat CPU 0 instructions: 120000019 cycles: 119321416 heartbeat IPC: 0.228 cumulative IPC: 0.2263 (Simulation time: 00 hr 31 min 49 sec)
Heartbeat CPU 0 instructions: 130000019 cycles: 162800770 heartbeat IPC: 0.23 cumulative IPC: 0.2275 (Simulation time: 00 hr 40 min 05 sec)
Heartbeat CPU 0 instructions: 140000020 cycles: 207462919 heartbeat IPC: 0.2239 cumulative IPC: 0.2266 (Simulation time: 00 hr 48 min 01 sec)
Heartbeat CPU 0 instructions: 150000022 cycles: 250462575 heartbeat IPC: 0.2326 cumulative IPC: 0.2278 (Simulation time: 00 hr 55 min 37 sec)
Heartbeat CPU 0 instructions: 160000023 cycles: 292535830 heartbeat IPC: 0.2377 cumulative IPC: 0.2294 (Simulation time: 01 hr 03 min 01 sec)
Heartbeat CPU 0 instructions: 170000025 cycles: 336812734 heartbeat IPC: 0.2259 cumulative IPC: 0.2289 (Simulation time: 01 hr 10 min 52 sec)
Heartbeat CPU 0 instructions: 180000026 cycles: 378930081 heartbeat IPC: 0.2374 cumulative IPC: 0.2299 (Simulation time: 01 hr 18 min 55 sec)
Heartbeat CPU 0 instructions: 190000026 cycles: 423169898 heartbeat IPC: 0.226 cumulative IPC: 0.2295 (Simulation time: 01 hr 27 min 16 sec)
Heartbeat CPU 0 instructions: 200000028 cycles: 467484024 heartbeat IPC: 0.2257 cumulative IPC: 0.2291 (Simulation time: 01 hr 35 min 17 sec)
Heartbeat CPU 0 instructions: 210000030 cycles: 512811797 heartbeat IPC: 0.2206 cumulative IPC: 0.2283 (Simulation time: 01 hr 43 min 13 sec)
Heartbeat CPU 0 instructions: 220000030 cycles: 554808811 heartbeat IPC: 0.2381 cumulative IPC: 0.2291 (Simulation time: 01 hr 50 min 16 sec)
Heartbeat CPU 0 instructions: 230000030 cycles: 600054749 heartbeat IPC: 0.221 cumulative IPC: 0.2284 (Simulation time: 01 hr 59 min 18 sec)
Heartbeat CPU 0 instructions: 240000033 cycles: 641134675 heartbeat IPC: 0.2434 cumulative IPC: 0.2294 (Simulation time: 02 hr 06 min 58 sec)
Heartbeat CPU 0 instructions: 250000036 cycles: 684038927 heartbeat IPC: 0.2331 cumulative IPC: 0.2297 (Simulation time: 02 hr 13 min 52 sec)
Heartbeat CPU 0 instructions: 260000036 cycles: 727109750 heartbeat IPC: 0.2322 cumulative IPC: 0.2298 (Simulation time: 02 hr 20 min 41 sec)
Heartbeat CPU 0 instructions: 270000040 cycles: 770433705 heartbeat IPC: 0.2308 cumulative IPC: 0.2299 (Simulation time: 02 hr 28 min 08 sec)
Heartbeat CPU 0 instructions: 280000040 cycles: 813589832 heartbeat IPC: 0.2317 cumulative IPC: 0.23 (Simulation time: 02 hr 35 min 17 sec)
Heartbeat CPU 0 instructions: 290000040 cycles: 854770381 heartbeat IPC: 0.2428 cumulative IPC: 0.2306 (Simulation time: 02 hr 42 min 25 sec)
Heartbeat CPU 0 instructions: 300000043 cycles: 895867342 heartbeat IPC: 0.2433 cumulative IPC: 0.2312 (Simulation time: 02 hr 49 min 24 sec)
Heartbeat CPU 0 instructions: 310000044 cycles: 933278171 heartbeat IPC: 0.2673 cumulative IPC: 0.2327 (Simulation time: 02 hr 55 min 59 sec)
Heartbeat CPU 0 instructions: 320000045 cycles: 973710556 heartbeat IPC: 0.2473 cumulative IPC: 0.2334 (Simulation time: 03 hr 03 min 08 sec)
Heartbeat CPU 0 instructions: 330000045 cycles: 1013731543 heartbeat IPC: 0.2499 cumulative IPC: 0.234 (Simulation time: 03 hr 10 min 36 sec)
Heartbeat CPU 0 instructions: 340000048 cycles: 1053525359 heartbeat IPC: 0.2513 cumulative IPC: 0.2347 (Simulation time: 03 hr 17 min 45 sec)
Heartbeat CPU 0 instructions: 350000048 cycles: 1093478014 heartbeat IPC: 0.2503 cumulative IPC: 0.2353 (Simulation time: 03 hr 24 min 43 sec)
Heartbeat CPU 0 instructions: 360000049 cycles: 1132646320 heartbeat IPC: 0.2553 cumulative IPC: 0.236 (Simulation time: 03 hr 31 min 34 sec)
Heartbeat CPU 0 instructions: 370000052 cycles: 1171496832 heartbeat IPC: 0.2574 cumulative IPC: 0.2367 (Simulation time: 03 hr 38 min 19 sec)
Heartbeat CPU 0 instructions: 380000052 cycles: 1211339736 heartbeat IPC: 0.251 cumulative IPC: 0.2372 (Simulation time: 03 hr 44 min 49 sec)
Heartbeat CPU 0 instructions: 390000053 cycles: 1251153676 heartbeat IPC: 0.2512 cumulative IPC: 0.2377 (Simulation time: 03 hr 51 min 34 sec)
Heartbeat CPU 0 instructions: 400000054 cycles: 1291205371 heartbeat IPC: 0.2497 cumulative IPC: 0.238 (Simulation time: 03 hr 57 min 54 sec)
Heartbeat CPU 0 instructions: 410000056 cycles: 1331298609 heartbeat IPC: 0.2494 cumulative IPC: 0.2384 (Simulation time: 04 hr 05 min 34 sec)
Heartbeat CPU 0 instructions: 420000059 cycles: 1371151365 heartbeat IPC: 0.2509 cumulative IPC: 0.2388 (Simulation time: 04 hr 11 min 40 sec)
Heartbeat CPU 0 instructions: 430000060 cycles: 1411276435 heartbeat IPC: 0.2492 cumulative IPC: 0.2391 (Simulation time: 04 hr 17 min 38 sec)
Heartbeat CPU 0 instructions: 440000061 cycles: 1451288452 heartbeat IPC: 0.2499 cumulative IPC: 0.2394 (Simulation time: 04 hr 23 min 39 sec)
Heartbeat CPU 0 instructions: 450000065 cycles: 1491987694 heartbeat IPC: 0.2457 cumulative IPC: 0.2396 (Simulation time: 04 hr 29 min 32 sec)
Heartbeat CPU 0 instructions: 460000065 cycles: 1533806322 heartbeat IPC: 0.2391 cumulative IPC: 0.2395 (Simulation time: 04 hr 35 min 30 sec)
Heartbeat CPU 0 instructions: 470000066 cycles: 1578604265 heartbeat IPC: 0.2232 cumulative IPC: 0.2391 (Simulation time: 04 hr 41 min 12 sec)
Heartbeat CPU 0 instructions: 480000070 cycles: 1621996215 heartbeat IPC: 0.2305 cumulative IPC: 0.2388 (Simulation time: 04 hr 46 min 14 sec)
Heartbeat CPU 0 instructions: 490000070 cycles: 1665497332 heartbeat IPC: 0.2299 cumulative IPC: 0.2386 (Simulation time: 04 hr 51 min 12 sec)
Heartbeat CPU 0 instructions: 500000071 cycles: 1710989153 heartbeat IPC: 0.2198 cumulative IPC: 0.2381 (Simulation time: 04 hr 56 min 45 sec)
Heartbeat CPU 0 instructions: 510000073 cycles: 1754405887 heartbeat IPC: 0.2303 cumulative IPC: 0.2379 (Simulation time: 05 hr 02 min 00 sec)
Heartbeat CPU 0 instructions: 520000074 cycles: 1798094821 heartbeat IPC: 0.2289 cumulative IPC: 0.2377 (Simulation time: 05 hr 07 min 29 sec)
Heartbeat CPU 0 instructions: 530000074 cycles: 1844037324 heartbeat IPC: 0.2177 cumulative IPC: 0.2372 (Simulation time: 05 hr 13 min 05 sec)
Heartbeat CPU 0 instructions: 540000074 cycles: 1888027882 heartbeat IPC: 0.2273 cumulative IPC: 0.2369 (Simulation time: 05 hr 18 min 44 sec)
Heartbeat CPU 0 instructions: 550000077 cycles: 1933899305 heartbeat IPC: 0.218 cumulative IPC: 0.2365 (Simulation time: 05 hr 24 min 35 sec)
Heartbeat CPU 0 instructions: 560000077 cycles: 1980040314 heartbeat IPC: 0.2167 cumulative IPC: 0.236 (Simulation time: 05 hr 30 min 26 sec)
Heartbeat CPU 0 instructions: 570000078 cycles: 2036786210 heartbeat IPC: 0.1762 cumulative IPC: 0.2343 (Simulation time: 05 hr 37 min 29 sec)
Heartbeat CPU 0 instructions: 580000079 cycles: 2088447180 heartbeat IPC: 0.1936 cumulative IPC: 0.2333 (Simulation time: 05 hr 44 min 15 sec)
Heartbeat CPU 0 instructions: 590000081 cycles: 2142418630 heartbeat IPC: 0.1853 cumulative IPC: 0.2321 (Simulation time: 05 hr 51 min 08 sec)
Simulation finished CPU 0 instructions: 500000000 cycles: 2163502914 cumulative IPC: 0.2311 (Simulation time: 05 hr 57 min 36 sec)
Simulation complete CPU 0 instructions: 500000000 cycles: 2163502914 cumulative IPC: 0.2311 (Simulation time: 05 hr 57 min 36 sec)

ChampSim completed all CPUs

=== Simulation ===
CPU 0 runs traces/T2.xz

Region of Interest Statistics

CPU 0 cumulative IPC: 0.2311 instructions: 500000000 cycles: 2163502914
CPU 0 Branch Prediction Accuracy: 87.05% MPKI: 32.06 Average ROB Occupancy at Mispredict: 15.66
Branch type MPKI
BRANCH_DIRECT_JUMP: 0.2882
BRANCH_INDIRECT: 0
BRANCH_CONDITIONAL: 31.77
BRANCH_DIRECT_CALL: 0
BRANCH_INDIRECT_CALL: 0.000158
BRANCH_RETURN: 0

cpu0->cpu0_STLB TOTAL        ACCESS:    7001410 HIT:    6910033 MISS:      91377 MSHR_MERGE:          0
cpu0->cpu0_STLB LOAD         ACCESS:    7001410 HIT:    6910033 MISS:      91377 MSHR_MERGE:          0
cpu0->cpu0_STLB RFO          ACCESS:          0 HIT:          0 MISS:          0 MSHR_MERGE:          0
cpu0->cpu0_STLB PREFETCH     ACCESS:          0 HIT:          0 MISS:          0 MSHR_MERGE:          0
cpu0->cpu0_STLB WRITE        ACCESS:          0 HIT:          0 MISS:          0 MSHR_MERGE:          0
cpu0->cpu0_STLB TRANSLATION  ACCESS:          0 HIT:          0 MISS:          0 MSHR_MERGE:          0
cpu0->cpu0_STLB PREFETCH REQUESTED:          0 ISSUED:          0 USEFUL:          0 USELESS:          0
cpu0->cpu0_STLB AVERAGE MISS LATENCY: 559.2 cycles
cpu0->cpu0_L2C TOTAL        ACCESS:   20183222 HIT:    9636140 MISS:   10547082 MSHR_MERGE:          0
cpu0->cpu0_L2C LOAD         ACCESS:   15363222 HIT:    5741686 MISS:    9621536 MSHR_MERGE:          0
cpu0->cpu0_L2C RFO          ACCESS:    1902534 HIT:    1112234 MISS:     790300 MSHR_MERGE:          0
cpu0->cpu0_L2C PREFETCH     ACCESS:          0 HIT:          0 MISS:          0 MSHR_MERGE:          0
cpu0->cpu0_L2C WRITE        ACCESS:    2781968 HIT:    2780574 MISS:       1394 MSHR_MERGE:          0
cpu0->cpu0_L2C TRANSLATION  ACCESS:     135498 HIT:       1646 MISS:     133852 MSHR_MERGE:          0
cpu0->cpu0_L2C PREFETCH REQUESTED:          0 ISSUED:          0 USEFUL:          0 USELESS:          0
cpu0->cpu0_L2C AVERAGE MISS LATENCY: 207.9 cycles
cpu0->cpu0_L1I TOTAL        ACCESS:    1611067 HIT:    1611065 MISS:          2 MSHR_MERGE:          0
cpu0->cpu0_L1I LOAD         ACCESS:    1611067 HIT:    1611065 MISS:          2 MSHR_MERGE:          0
cpu0->cpu0_L1I RFO          ACCESS:          0 HIT:          0 MISS:          0 MSHR_MERGE:          0
cpu0->cpu0_L1I PREFETCH     ACCESS:          0 HIT:          0 MISS:          0 MSHR_MERGE:          0
cpu0->cpu0_L1I WRITE        ACCESS:          0 HIT:          0 MISS:          0 MSHR_MERGE:          0
cpu0->cpu0_L1I TRANSLATION  ACCESS:          0 HIT:          0 MISS:          0 MSHR_MERGE:          0
cpu0->cpu0_L1I PREFETCH REQUESTED:          0 ISSUED:          0 USEFUL:          0 USELESS:          0
cpu0->cpu0_L1I AVERAGE MISS LATENCY: 199 cycles
cpu0->cpu0_L1D TOTAL        ACCESS:  205638792 HIT:  181144187 MISS:   24494605 MSHR_MERGE:    7093337
cpu0->cpu0_L1D LOAD         ACCESS:  145631524 HIT:  126508469 MISS:   19123055 MSHR_MERGE:    3759824
cpu0->cpu0_L1D RFO          ACCESS:          0 HIT:          0 MISS:          0 MSHR_MERGE:          0
cpu0->cpu0_L1D PREFETCH     ACCESS:          0 HIT:          0 MISS:          0 MSHR_MERGE:          0
cpu0->cpu0_L1D WRITE        ACCESS:   59823957 HIT:   54587969 MISS:    5235988 MSHR_MERGE:    3333449
cpu0->cpu0_L1D TRANSLATION  ACCESS:     183311 HIT:      47749 MISS:     135562 MSHR_MERGE:         64
cpu0->cpu0_L1D PREFETCH REQUESTED:          0 ISSUED:          0 USEFUL:          0 USELESS:          0
cpu0->cpu0_L1D AVERAGE MISS LATENCY: 134.7 cycles
cpu0->cpu0_ITLB TOTAL        ACCESS:    1490474 HIT:    1490474 MISS:          0 MSHR_MERGE:          0
cpu0->cpu0_ITLB LOAD         ACCESS:    1490474 HIT:    1490474 MISS:          0 MSHR_MERGE:          0
cpu0->cpu0_ITLB RFO          ACCESS:          0 HIT:          0 MISS:          0 MSHR_MERGE:          0
cpu0->cpu0_ITLB PREFETCH     ACCESS:          0 HIT:          0 MISS:          0 MSHR_MERGE:          0
cpu0->cpu0_ITLB WRITE        ACCESS:          0 HIT:          0 MISS:          0 MSHR_MERGE:          0
cpu0->cpu0_ITLB TRANSLATION  ACCESS:          0 HIT:          0 MISS:          0 MSHR_MERGE:          0
cpu0->cpu0_ITLB PREFETCH REQUESTED:          0 ISSUED:          0 USEFUL:          0 USELESS:          0
cpu0->cpu0_ITLB AVERAGE MISS LATENCY: - cycles
cpu0->cpu0_DTLB TOTAL        ACCESS:  196410516 HIT:  186892928 MISS:    9517588 MSHR_MERGE:    2516178
cpu0->cpu0_DTLB LOAD         ACCESS:  196410516 HIT:  186892928 MISS:    9517588 MSHR_MERGE:    2516178
cpu0->cpu0_DTLB RFO          ACCESS:          0 HIT:          0 MISS:          0 MSHR_MERGE:          0
cpu0->cpu0_DTLB PREFETCH     ACCESS:          0 HIT:          0 MISS:          0 MSHR_MERGE:          0
cpu0->cpu0_DTLB WRITE        ACCESS:          0 HIT:          0 MISS:          0 MSHR_MERGE:          0
cpu0->cpu0_DTLB TRANSLATION  ACCESS:          0 HIT:          0 MISS:          0 MSHR_MERGE:          0
cpu0->cpu0_DTLB PREFETCH REQUESTED:          0 ISSUED:          0 USEFUL:          0 USELESS:          0
cpu0->cpu0_DTLB AVERAGE MISS LATENCY: 12.31 cycles
cpu0->LLC TOTAL        ACCESS:   11921663 HIT:     365718 MISS:   11555945 MSHR_MERGE:          0
cpu0->LLC LOAD         ACCESS:    9621536 HIT:     187672 MISS:    9433864 MSHR_MERGE:          0
cpu0->LLC RFO          ACCESS:     790300 HIT:     171248 MISS:     619052 MSHR_MERGE:          0
cpu0->LLC PREFETCH     ACCESS:          0 HIT:          0 MISS:          0 MSHR_MERGE:          0
cpu0->LLC WRITE        ACCESS:    1375975 HIT:       6194 MISS:    1369781 MSHR_MERGE:          0
cpu0->LLC TRANSLATION  ACCESS:     133852 HIT:        604 MISS:     133248 MSHR_MERGE:          0
cpu0->LLC PREFETCH REQUESTED:          0 ISSUED:          0 USEFUL:          0 USELESS:          0
cpu0->LLC AVERAGE MISS LATENCY: 176.3 cycles

DRAM Statistics

Channel 0 RQ ROW_BUFFER_HIT:      16497
  ROW_BUFFER_MISS:   10140351
  AVG DBUS CONGESTED CYCLE: 8.521
Channel 0 WQ ROW_BUFFER_HIT:     417782
  ROW_BUFFER_MISS:     956549
  FULL:          0
Channel 0 REFRESHES ISSUED:     180291
