[VMEM] WARNING: physical memory size is smaller than virtual memory size.
WARNING: option --warmup_instructions is deprecated. Use --warmup-instructions instead.
WARNING: option --simulation_instructions is deprecated. Use --simulation-instructions instead.

*** ChampSim Multicore Out-of-Order Simulator ***
Warmup Instructions: 20000000
Simulation Instructions: 50000000
Number of CPUs: 1
Page size: 8192

Off-chip DRAM Size: 16 GiB Channels: 1 Width: 64-bit Data Rate: 3205 MT/s
Heartbeat CPU 0 instructions: 10000000 cycles: 8198188 heartbeat IPC: 1.22 cumulative IPC: 1.22 (Simulation time: 00 hr 01 min 22 sec)
Heartbeat CPU 0 instructions: 20000007 cycles: 15183436 heartbeat IPC: 1.432 cumulative IPC: 1.317 (Simulation time: 00 hr 02 min 36 sec)
Warmup finished CPU 0 instructions: 20000007 cycles: 15183436 cumulative IPC: 1.317 (Simulation time: 00 hr 02 min 36 sec)
Warmup complete CPU 0 instructions: 20000007 cycles: 15183436 cumulative IPC: 1.317 (Simulation time: 00 hr 02 min 36 sec)
Heartbeat CPU 0 instructions: 30000010 cycles: 44185005 heartbeat IPC: 0.3448 cumulative IPC: 0.3448 (Simulation time: 00 hr 05 min 39 sec)
Heartbeat CPU 0 instructions: 40000016 cycles: 73448312 heartbeat IPC: 0.3417 cumulative IPC: 0.3433 (Simulation time: 00 hr 08 min 42 sec)
Heartbeat CPU 0 instructions: 50000018 cycles: 102590701 heartbeat IPC: 0.3431 cumulative IPC: 0.3432 (Simulation time: 00 hr 11 min 45 sec)
Heartbeat CPU 0 instructions: 60000019 cycles: 129979829 heartbeat IPC: 0.3651 cumulative IPC: 0.3484 (Simulation time: 00 hr 14 min 42 sec)
Simulation finished CPU 0 instructions: 50000000 cycles: 141514615 cumulative IPC: 0.3533 (Simulation time: 00 hr 17 min 32 sec)
Simulation complete CPU 0 instructions: 50000000 cycles: 141514615 cumulative IPC: 0.3533 (Simulation time: 00 hr 17 min 32 sec)

ChampSim completed all CPUs

=== Simulation ===
CPU 0 runs traces/620.omnetpp_s-874B.champsimtrace.xz

Region of Interest Statistics

CPU 0 cumulative IPC: 0.3533 instructions: 50000000 cycles: 141514615
CPU 0 Branch Prediction Accuracy: 96.16% MPKI: 7.99 Average ROB Occupancy at Mispredict: 48.35
Branch type MPKI
BRANCH_DIRECT_JUMP: 0.9384
BRANCH_INDIRECT: 0.1208
BRANCH_CONDITIONAL: 5.805
BRANCH_DIRECT_CALL: 0.00236
BRANCH_INDIRECT_CALL: 0.7298
BRANCH_RETURN: 0.3936

cpu0->cpu0_STLB TOTAL        ACCESS:     828717 HIT:     691620 MISS:     137097 MSHR_MERGE:          0
cpu0->cpu0_STLB LOAD         ACCESS:     828717 HIT:     691620 MISS:     137097 MSHR_MERGE:          0
cpu0->cpu0_STLB RFO          ACCESS:          0 HIT:          0 MISS:          0 MSHR_MERGE:          0
cpu0->cpu0_STLB PREFETCH     ACCESS:          0 HIT:          0 MISS:          0 MSHR_MERGE:          0
cpu0->cpu0_STLB WRITE        ACCESS:          0 HIT:          0 MISS:          0 MSHR_MERGE:          0
cpu0->cpu0_STLB TRANSLATION  ACCESS:          0 HIT:          0 MISS:          0 MSHR_MERGE:          0
cpu0->cpu0_STLB PREFETCH REQUESTED:          0 ISSUED:          0 USEFUL:          0 USELESS:          0
cpu0->cpu0_STLB AVERAGE MISS LATENCY: 325 cycles
cpu0->cpu0_L2C TOTAL        ACCESS:    1975874 HIT:     882288 MISS:    1093586 MSHR_MERGE:       2449
cpu0->cpu0_L2C LOAD         ACCESS:     934277 HIT:     288703 MISS:     645574 MSHR_MERGE:         39
cpu0->cpu0_L2C RFO          ACCESS:     138741 HIT:      32084 MISS:     106657 MSHR_MERGE:          1
cpu0->cpu0_L2C PREFETCH     ACCESS:     102512 HIT:      34220 MISS:      68292 MSHR_MERGE:       2409
cpu0->cpu0_L2C WRITE        ACCESS:     507079 HIT:     504781 MISS:       2298 MSHR_MERGE:          0
cpu0->cpu0_L2C TRANSLATION  ACCESS:     293265 HIT:      22500 MISS:     270765 MSHR_MERGE:          0
cpu0->cpu0_L2C PREFETCH REQUESTED:     102512 ISSUED:     102512 USEFUL:      14694 USELESS:      51078
cpu0->cpu0_L2C AVERAGE MISS LATENCY: 137.7 cycles
cpu0->cpu0_L1I TOTAL        ACCESS:    7012713 HIT:    6991795 MISS:      20918 MSHR_MERGE:       2490
cpu0->cpu0_L1I LOAD         ACCESS:    7012713 HIT:    6991795 MISS:      20918 MSHR_MERGE:       2490
cpu0->cpu0_L1I RFO          ACCESS:          0 HIT:          0 MISS:          0 MSHR_MERGE:          0
cpu0->cpu0_L1I PREFETCH     ACCESS:          0 HIT:          0 MISS:          0 MSHR_MERGE:          0
cpu0->cpu0_L1I WRITE        ACCESS:          0 HIT:          0 MISS:          0 MSHR_MERGE:          0
cpu0->cpu0_L1I TRANSLATION  ACCESS:          0 HIT:          0 MISS:          0 MSHR_MERGE:          0
cpu0->cpu0_L1I PREFETCH REQUESTED:          0 ISSUED:          0 USEFUL:          0 USELESS:          0
cpu0->cpu0_L1I AVERAGE MISS LATENCY: 28.84 cycles
cpu0->cpu0_L1D TOTAL        ACCESS:   18367582 HIT:   16584575 MISS:    1783007 MSHR_MERGE:     435142
cpu0->cpu0_L1D LOAD         ACCESS:    9118286 HIT:    8004770 MISS:    1113516 MSHR_MERGE:     197662
cpu0->cpu0_L1D RFO          ACCESS:          0 HIT:          0 MISS:          0 MSHR_MERGE:          0
cpu0->cpu0_L1D PREFETCH     ACCESS:          0 HIT:          0 MISS:          0 MSHR_MERGE:          0
cpu0->cpu0_L1D WRITE        ACCESS:    8948039 HIT:    8572130 MISS:     375909 MSHR_MERGE:     237163
cpu0->cpu0_L1D TRANSLATION  ACCESS:     301257 HIT:       7675 MISS:     293582 MSHR_MERGE:        317
cpu0->cpu0_L1D PREFETCH REQUESTED:          0 ISSUED:          0 USEFUL:          0 USELESS:          0
cpu0->cpu0_L1D AVERAGE MISS LATENCY: 113.3 cycles
cpu0->cpu0_ITLB TOTAL        ACCESS:    6458803 HIT:    6458601 MISS:        202 MSHR_MERGE:         98
cpu0->cpu0_ITLB LOAD         ACCESS:    6458803 HIT:    6458601 MISS:        202 MSHR_MERGE:         98
cpu0->cpu0_ITLB RFO          ACCESS:          0 HIT:          0 MISS:          0 MSHR_MERGE:          0
cpu0->cpu0_ITLB PREFETCH     ACCESS:          0 HIT:          0 MISS:          0 MSHR_MERGE:          0
cpu0->cpu0_ITLB WRITE        ACCESS:          0 HIT:          0 MISS:          0 MSHR_MERGE:          0
cpu0->cpu0_ITLB TRANSLATION  ACCESS:          0 HIT:          0 MISS:          0 MSHR_MERGE:          0
cpu0->cpu0_ITLB PREFETCH REQUESTED:          0 ISSUED:          0 USEFUL:          0 USELESS:          0
cpu0->cpu0_ITLB AVERAGE MISS LATENCY: 189.4 cycles
cpu0->cpu0_DTLB TOTAL        ACCESS:   16846954 HIT:   15898643 MISS:     948311 MSHR_MERGE:     119698
cpu0->cpu0_DTLB LOAD         ACCESS:   16846954 HIT:   15898643 MISS:     948311 MSHR_MERGE:     119698
cpu0->cpu0_DTLB RFO          ACCESS:          0 HIT:          0 MISS:          0 MSHR_MERGE:          0
cpu0->cpu0_DTLB PREFETCH     ACCESS:          0 HIT:          0 MISS:          0 MSHR_MERGE:          0
cpu0->cpu0_DTLB WRITE        ACCESS:          0 HIT:          0 MISS:          0 MSHR_MERGE:          0
cpu0->cpu0_DTLB TRANSLATION  ACCESS:          0 HIT:          0 MISS:          0 MSHR_MERGE:          0
cpu0->cpu0_DTLB PREFETCH REQUESTED:          0 ISSUED:          0 USEFUL:          0 USELESS:          0
cpu0->cpu0_DTLB AVERAGE MISS LATENCY: 57.91 cycles
cpu0->LLC TOTAL        ACCESS:    1471468 HIT:     339006 MISS:    1132462 MSHR_MERGE:          0
cpu0->LLC LOAD         ACCESS:     645535 HIT:     130061 MISS:     515474 MSHR_MERGE:          0
cpu0->LLC RFO          ACCESS:     106656 HIT:      23514 MISS:      83142 MSHR_MERGE:          0
cpu0->LLC PREFETCH     ACCESS:      65883 HIT:       2024 MISS:      63859 MSHR_MERGE:          0
cpu0->LLC WRITE        ACCESS:     382629 HIT:     127066 MISS:     255563 MSHR_MERGE:          0
cpu0->LLC TRANSLATION  ACCESS:     270765 HIT:      56341 MISS:     214424 MSHR_MERGE:          0
cpu0->LLC PREFETCH REQUESTED:          0 ISSUED:          0 USEFUL:          0 USELESS:          0
cpu0->LLC AVERAGE MISS LATENCY: 118.2 cycles

DRAM Statistics

Channel 0 RQ ROW_BUFFER_HIT:      17632
  ROW_BUFFER_MISS:     859228
  AVG DBUS CONGESTED CYCLE: 23.26
Channel 0 WQ ROW_BUFFER_HIT:      73968
  ROW_BUFFER_MISS:     206366
  FULL:          0
Channel 0 REFRESHES ISSUED:      11793
