[VMEM] WARNING: physical memory size is smaller than virtual memory size.
WARNING: option --warmup_instructions is deprecated. Use --warmup-instructions instead.
WARNING: option --simulation_instructions is deprecated. Use --simulation-instructions instead.

*** ChampSim Multicore Out-of-Order Simulator ***
Warmup Instructions: 20000000
Simulation Instructions: 50000000
Number of CPUs: 1
Page size: 8192

Off-chip DRAM Size: 16 GiB Channels: 1 Width: 64-bit Data Rate: 3205 MT/s
Heartbeat CPU 0 instructions: 10000000 cycles: 6774866 heartbeat IPC: 1.476 cumulative IPC: 1.476 (Simulation time: 00 hr 01 min 10 sec)
Heartbeat CPU 0 instructions: 20000005 cycles: 10662048 heartbeat IPC: 2.573 cumulative IPC: 1.876 (Simulation time: 00 hr 02 min 01 sec)
Warmup finished CPU 0 instructions: 20000005 cycles: 10662048 cumulative IPC: 1.876 (Simulation time: 00 hr 02 min 01 sec)
Warmup complete CPU 0 instructions: 20000005 cycles: 10662048 cumulative IPC: 1.876 (Simulation time: 00 hr 02 min 01 sec)
Heartbeat CPU 0 instructions: 30000007 cycles: 60142355 heartbeat IPC: 0.2021 cumulative IPC: 0.2021 (Simulation time: 00 hr 06 min 36 sec)
Heartbeat CPU 0 instructions: 40000013 cycles: 109847829 heartbeat IPC: 0.2012 cumulative IPC: 0.2016 (Simulation time: 00 hr 11 min 18 sec)
Heartbeat CPU 0 instructions: 50000018 cycles: 159754234 heartbeat IPC: 0.2004 cumulative IPC: 0.2012 (Simulation time: 00 hr 16 min 04 sec)
Heartbeat CPU 0 instructions: 60000018 cycles: 209035504 heartbeat IPC: 0.2029 cumulative IPC: 0.2016 (Simulation time: 00 hr 20 min 40 sec)
Simulation finished CPU 0 instructions: 50000002 cycles: 247100195 cumulative IPC: 0.2023 (Simulation time: 00 hr 25 min 17 sec)
Simulation complete CPU 0 instructions: 50000002 cycles: 247100195 cumulative IPC: 0.2023 (Simulation time: 00 hr 25 min 17 sec)

ChampSim completed all CPUs

=== Simulation ===
CPU 0 runs traces/473.astar-359B.champsimtrace.xz

Region of Interest Statistics

CPU 0 cumulative IPC: 0.2023 instructions: 50000002 cycles: 247100195
CPU 0 Branch Prediction Accuracy: 93.2% MPKI: 13.43 Average ROB Occupancy at Mispredict: 43.19
Branch type MPKI
BRANCH_DIRECT_JUMP: 0
BRANCH_INDIRECT: 0
BRANCH_CONDITIONAL: 13.42
BRANCH_DIRECT_CALL: 0
BRANCH_INDIRECT_CALL: 0.00054
BRANCH_RETURN: 0

cpu0->cpu0_STLB TOTAL        ACCESS:    1275590 HIT:     889330 MISS:     386260 MSHR_MERGE:          0
cpu0->cpu0_STLB LOAD         ACCESS:    1275590 HIT:     889330 MISS:     386260 MSHR_MERGE:          0
cpu0->cpu0_STLB RFO          ACCESS:          0 HIT:          0 MISS:          0 MSHR_MERGE:          0
cpu0->cpu0_STLB PREFETCH     ACCESS:          0 HIT:          0 MISS:          0 MSHR_MERGE:          0
cpu0->cpu0_STLB WRITE        ACCESS:          0 HIT:          0 MISS:          0 MSHR_MERGE:          0
cpu0->cpu0_STLB TRANSLATION  ACCESS:          0 HIT:          0 MISS:          0 MSHR_MERGE:          0
cpu0->cpu0_STLB PREFETCH REQUESTED:          0 ISSUED:          0 USEFUL:          0 USELESS:          0
cpu0->cpu0_STLB AVERAGE MISS LATENCY: 560.3 cycles
cpu0->cpu0_L2C TOTAL        ACCESS:    5089780 HIT:    2302355 MISS:    2787425 MSHR_MERGE:      88581
cpu0->cpu0_L2C LOAD         ACCESS:    1775424 HIT:     803929 MISS:     971495 MSHR_MERGE:      38283
cpu0->cpu0_L2C RFO          ACCESS:     767625 HIT:      47857 MISS:     719768 MSHR_MERGE:          0
cpu0->cpu0_L2C PREFETCH     ACCESS:     728096 HIT:     274451 MISS:     453645 MSHR_MERGE:      50298
cpu0->cpu0_L2C WRITE        ACCESS:    1168857 HIT:    1168804 MISS:         53 MSHR_MERGE:          0
cpu0->cpu0_L2C TRANSLATION  ACCESS:     649778 HIT:       7314 MISS:     642464 MSHR_MERGE:          0
cpu0->cpu0_L2C PREFETCH REQUESTED:     728096 ISSUED:     728096 USEFUL:     123819 USELESS:     280252
cpu0->cpu0_L2C AVERAGE MISS LATENCY: 247.4 cycles
cpu0->cpu0_L1I TOTAL        ACCESS:     635652 HIT:     635645 MISS:          7 MSHR_MERGE:          0
cpu0->cpu0_L1I LOAD         ACCESS:     635652 HIT:     635645 MISS:          7 MSHR_MERGE:          0
cpu0->cpu0_L1I RFO          ACCESS:          0 HIT:          0 MISS:          0 MSHR_MERGE:          0
cpu0->cpu0_L1I PREFETCH     ACCESS:          0 HIT:          0 MISS:          0 MSHR_MERGE:          0
cpu0->cpu0_L1I WRITE        ACCESS:          0 HIT:          0 MISS:          0 MSHR_MERGE:          0
cpu0->cpu0_L1I TRANSLATION  ACCESS:          0 HIT:          0 MISS:          0 MSHR_MERGE:          0
cpu0->cpu0_L1I PREFETCH REQUESTED:          0 ISSUED:          0 USEFUL:          0 USELESS:          0
cpu0->cpu0_L1I AVERAGE MISS LATENCY: 177.9 cycles
cpu0->cpu0_L1D TOTAL        ACCESS:   19761693 HIT:   15943619 MISS:    3818074 MSHR_MERGE:     625252
cpu0->cpu0_L1D LOAD         ACCESS:   12683058 HIT:   10375565 MISS:    2307493 MSHR_MERGE:     532076
cpu0->cpu0_L1D RFO          ACCESS:          0 HIT:          0 MISS:          0 MSHR_MERGE:          0
cpu0->cpu0_L1D PREFETCH     ACCESS:          0 HIT:          0 MISS:          0 MSHR_MERGE:          0
cpu0->cpu0_L1D WRITE        ACCESS:    6301898 HIT:    5534200 MISS:     767698 MSHR_MERGE:         71
cpu0->cpu0_L1D TRANSLATION  ACCESS:     776737 HIT:      33854 MISS:     742883 MSHR_MERGE:      93105
cpu0->cpu0_L1D PREFETCH REQUESTED:          0 ISSUED:          0 USEFUL:          0 USELESS:          0
cpu0->cpu0_L1D AVERAGE MISS LATENCY: 192.5 cycles
cpu0->cpu0_ITLB TOTAL        ACCESS:     632702 HIT:     632702 MISS:          0 MSHR_MERGE:          0
cpu0->cpu0_ITLB LOAD         ACCESS:     632702 HIT:     632702 MISS:          0 MSHR_MERGE:          0
cpu0->cpu0_ITLB RFO          ACCESS:          0 HIT:          0 MISS:          0 MSHR_MERGE:          0
cpu0->cpu0_ITLB PREFETCH     ACCESS:          0 HIT:          0 MISS:          0 MSHR_MERGE:          0
cpu0->cpu0_ITLB WRITE        ACCESS:          0 HIT:          0 MISS:          0 MSHR_MERGE:          0
cpu0->cpu0_ITLB TRANSLATION  ACCESS:          0 HIT:          0 MISS:          0 MSHR_MERGE:          0
cpu0->cpu0_ITLB PREFETCH REQUESTED:          0 ISSUED:          0 USEFUL:          0 USELESS:          0
cpu0->cpu0_ITLB AVERAGE MISS LATENCY: - cycles
cpu0->cpu0_DTLB TOTAL        ACCESS:   18062769 HIT:   16230997 MISS:    1831772 MSHR_MERGE:     556182
cpu0->cpu0_DTLB LOAD         ACCESS:   18062769 HIT:   16230997 MISS:    1831772 MSHR_MERGE:     556182
cpu0->cpu0_DTLB RFO          ACCESS:          0 HIT:          0 MISS:          0 MSHR_MERGE:          0
cpu0->cpu0_DTLB PREFETCH     ACCESS:          0 HIT:          0 MISS:          0 MSHR_MERGE:          0
cpu0->cpu0_DTLB WRITE        ACCESS:          0 HIT:          0 MISS:          0 MSHR_MERGE:          0
cpu0->cpu0_DTLB TRANSLATION  ACCESS:          0 HIT:          0 MISS:          0 MSHR_MERGE:          0
cpu0->cpu0_DTLB PREFETCH REQUESTED:          0 ISSUED:          0 USEFUL:          0 USELESS:          0
cpu0->cpu0_DTLB AVERAGE MISS LATENCY: 174 cycles
cpu0->LLC TOTAL        ACCESS:    3818709 HIT:     845631 MISS:    2973078 MSHR_MERGE:          0
cpu0->LLC LOAD         ACCESS:     933212 HIT:     215468 MISS:     717744 MSHR_MERGE:          0
cpu0->LLC RFO          ACCESS:     719768 HIT:     155604 MISS:     564164 MSHR_MERGE:          0
cpu0->LLC PREFETCH     ACCESS:     403347 HIT:      55914 MISS:     347433 MSHR_MERGE:          0
cpu0->LLC WRITE        ACCESS:    1119918 HIT:     313129 MISS:     806789 MSHR_MERGE:          0
cpu0->LLC TRANSLATION  ACCESS:     642464 HIT:     105516 MISS:     536948 MSHR_MERGE:          0
cpu0->LLC PREFETCH REQUESTED:          0 ISSUED:          0 USEFUL:          0 USELESS:          0
cpu0->LLC AVERAGE MISS LATENCY: 203.2 cycles

DRAM Statistics

Channel 0 RQ ROW_BUFFER_HIT:      67784
  ROW_BUFFER_MISS:    2098350
  AVG DBUS CONGESTED CYCLE: 19.61
Channel 0 WQ ROW_BUFFER_HIT:     132377
  ROW_BUFFER_MISS:     722680
  FULL:         61
Channel 0 REFRESHES ISSUED:      20592
