[VMEM] WARNING: physical memory size is smaller than virtual memory size.
WARNING: option --warmup_instructions is deprecated. Use --warmup-instructions instead.
WARNING: option --simulation_instructions is deprecated. Use --simulation-instructions instead.

*** ChampSim Multicore Out-of-Order Simulator ***
Warmup Instructions: 20000000
Simulation Instructions: 50000000
Number of CPUs: 1
Page size: 8192

Off-chip DRAM Size: 16 GiB Channels: 1 Width: 64-bit Data Rate: 3205 MT/s
Heartbeat CPU 0 instructions: 10000000 cycles: 6984429 heartbeat IPC: 1.432 cumulative IPC: 1.432 (Simulation time: 00 hr 01 min 08 sec)
Heartbeat CPU 0 instructions: 20000001 cycles: 11060026 heartbeat IPC: 2.454 cumulative IPC: 1.808 (Simulation time: 00 hr 01 min 58 sec)
Warmup finished CPU 0 instructions: 20000001 cycles: 11060026 cumulative IPC: 1.808 (Simulation time: 00 hr 01 min 58 sec)
Warmup complete CPU 0 instructions: 20000001 cycles: 11060026 cumulative IPC: 1.808 (Simulation time: 00 hr 01 min 58 sec)
Heartbeat CPU 0 instructions: 30000003 cycles: 58736779 heartbeat IPC: 0.2097 cumulative IPC: 0.2097 (Simulation time: 00 hr 05 min 55 sec)
Heartbeat CPU 0 instructions: 40000005 cycles: 107116977 heartbeat IPC: 0.2067 cumulative IPC: 0.2082 (Simulation time: 00 hr 09 min 54 sec)
Heartbeat CPU 0 instructions: 50000006 cycles: 155639472 heartbeat IPC: 0.2061 cumulative IPC: 0.2075 (Simulation time: 00 hr 14 min 01 sec)
Heartbeat CPU 0 instructions: 60000007 cycles: 203451033 heartbeat IPC: 0.2092 cumulative IPC: 0.2079 (Simulation time: 00 hr 17 min 50 sec)
Simulation finished CPU 0 instructions: 50000002 cycles: 241154096 cumulative IPC: 0.2073 (Simulation time: 00 hr 21 min 54 sec)
Simulation complete CPU 0 instructions: 50000002 cycles: 241154096 cumulative IPC: 0.2073 (Simulation time: 00 hr 21 min 54 sec)

ChampSim completed all CPUs

=== Simulation ===
CPU 0 runs traces/473.astar-359B.champsimtrace.xz

Region of Interest Statistics

CPU 0 cumulative IPC: 0.2073 instructions: 50000002 cycles: 241154096
CPU 0 Branch Prediction Accuracy: 93.2% MPKI: 13.43 Average ROB Occupancy at Mispredict: 44.39
Branch type MPKI
BRANCH_DIRECT_JUMP: 0
BRANCH_INDIRECT: 0
BRANCH_CONDITIONAL: 13.42
BRANCH_DIRECT_CALL: 0
BRANCH_INDIRECT_CALL: 0.00054
BRANCH_RETURN: 0

cpu0->cpu0_STLB TOTAL        ACCESS:    1275542 HIT:     889276 MISS:     386266 MSHR_MERGE:          0
cpu0->cpu0_STLB LOAD         ACCESS:    1275542 HIT:     889276 MISS:     386266 MSHR_MERGE:          0
cpu0->cpu0_STLB RFO          ACCESS:          0 HIT:          0 MISS:          0 MSHR_MERGE:          0
cpu0->cpu0_STLB PREFETCH     ACCESS:          0 HIT:          0 MISS:          0 MSHR_MERGE:          0
cpu0->cpu0_STLB WRITE        ACCESS:          0 HIT:          0 MISS:          0 MSHR_MERGE:          0
cpu0->cpu0_STLB TRANSLATION  ACCESS:          0 HIT:          0 MISS:          0 MSHR_MERGE:          0
cpu0->cpu0_STLB PREFETCH REQUESTED:          0 ISSUED:          0 USEFUL:          0 USELESS:          0
cpu0->cpu0_STLB AVERAGE MISS LATENCY: 592.1 cycles
cpu0->cpu0_L2C TOTAL        ACCESS:    6334720 HIT:    2972143 MISS:    3362577 MSHR_MERGE:      76763
cpu0->cpu0_L2C LOAD         ACCESS:    1775433 HIT:     975322 MISS:     800111 MSHR_MERGE:      16421
cpu0->cpu0_L2C RFO          ACCESS:     767634 HIT:      44278 MISS:     723356 MSHR_MERGE:          0
cpu0->cpu0_L2C PREFETCH     ACCESS:    1972691 HIT:     777863 MISS:    1194828 MSHR_MERGE:      60342
cpu0->cpu0_L2C WRITE        ACCESS:    1168867 HIT:    1168813 MISS:         54 MSHR_MERGE:          0
cpu0->cpu0_L2C TRANSLATION  ACCESS:     650095 HIT:       5867 MISS:     644228 MSHR_MERGE:          0
cpu0->cpu0_L2C PREFETCH REQUESTED:    1974595 ISSUED:    1972691 USEFUL:     306942 USELESS:     676444
cpu0->cpu0_L2C AVERAGE MISS LATENCY: 259.8 cycles
cpu0->cpu0_L1I TOTAL        ACCESS:     848866 HIT:     848859 MISS:          7 MSHR_MERGE:          0
cpu0->cpu0_L1I LOAD         ACCESS:     848866 HIT:     848859 MISS:          7 MSHR_MERGE:          0
cpu0->cpu0_L1I RFO          ACCESS:          0 HIT:          0 MISS:          0 MSHR_MERGE:          0
cpu0->cpu0_L1I PREFETCH     ACCESS:          0 HIT:          0 MISS:          0 MSHR_MERGE:          0
cpu0->cpu0_L1I WRITE        ACCESS:          0 HIT:          0 MISS:          0 MSHR_MERGE:          0
cpu0->cpu0_L1I TRANSLATION  ACCESS:          0 HIT:          0 MISS:          0 MSHR_MERGE:          0
cpu0->cpu0_L1I PREFETCH REQUESTED:          0 ISSUED:          0 USEFUL:          0 USELESS:          0
cpu0->cpu0_L1I AVERAGE MISS LATENCY: 203.6 cycles
cpu0->cpu0_L1D TOTAL        ACCESS:   19822715 HIT:   15980390 MISS:    3842325 MSHR_MERGE:     649168
cpu0->cpu0_L1D LOAD         ACCESS:   12730886 HIT:   10401047 MISS:    2329839 MSHR_MERGE:     554411
cpu0->cpu0_L1D RFO          ACCESS:          0 HIT:          0 MISS:          0 MSHR_MERGE:          0
cpu0->cpu0_L1D PREFETCH     ACCESS:          0 HIT:          0 MISS:          0 MSHR_MERGE:          0
cpu0->cpu0_L1D WRITE        ACCESS:    6314513 HIT:    5546788 MISS:     767725 MSHR_MERGE:         91
cpu0->cpu0_L1D TRANSLATION  ACCESS:     777316 HIT:      32555 MISS:     744761 MSHR_MERGE:      94666
cpu0->cpu0_L1D PREFETCH REQUESTED:          0 ISSUED:          0 USEFUL:          0 USELESS:          0
cpu0->cpu0_L1D AVERAGE MISS LATENCY: 185.5 cycles
cpu0->cpu0_ITLB TOTAL        ACCESS:     846586 HIT:     846586 MISS:          0 MSHR_MERGE:          0
cpu0->cpu0_ITLB LOAD         ACCESS:     846586 HIT:     846586 MISS:          0 MSHR_MERGE:          0
cpu0->cpu0_ITLB RFO          ACCESS:          0 HIT:          0 MISS:          0 MSHR_MERGE:          0
cpu0->cpu0_ITLB PREFETCH     ACCESS:          0 HIT:          0 MISS:          0 MSHR_MERGE:          0
cpu0->cpu0_ITLB WRITE        ACCESS:          0 HIT:          0 MISS:          0 MSHR_MERGE:          0
cpu0->cpu0_ITLB TRANSLATION  ACCESS:          0 HIT:          0 MISS:          0 MSHR_MERGE:          0
cpu0->cpu0_ITLB PREFETCH REQUESTED:          0 ISSUED:          0 USEFUL:          0 USELESS:          0
cpu0->cpu0_ITLB AVERAGE MISS LATENCY: - cycles
cpu0->cpu0_DTLB TOTAL        ACCESS:   18123790 HIT:   16240318 MISS:    1883472 MSHR_MERGE:     607930
cpu0->cpu0_DTLB LOAD         ACCESS:   18123790 HIT:   16240318 MISS:    1883472 MSHR_MERGE:     607930
cpu0->cpu0_DTLB RFO          ACCESS:          0 HIT:          0 MISS:          0 MSHR_MERGE:          0
cpu0->cpu0_DTLB PREFETCH     ACCESS:          0 HIT:          0 MISS:          0 MSHR_MERGE:          0
cpu0->cpu0_DTLB WRITE        ACCESS:          0 HIT:          0 MISS:          0 MSHR_MERGE:          0
cpu0->cpu0_DTLB TRANSLATION  ACCESS:          0 HIT:          0 MISS:          0 MSHR_MERGE:          0
cpu0->cpu0_DTLB PREFETCH REQUESTED:          0 ISSUED:          0 USEFUL:          0 USELESS:          0
cpu0->cpu0_DTLB AVERAGE MISS LATENCY: 183.6 cycles
cpu0->LLC TOTAL        ACCESS:    4410219 HIT:    1004638 MISS:    3405581 MSHR_MERGE:      19660
cpu0->LLC LOAD         ACCESS:     783690 HIT:     213758 MISS:     569932 MSHR_MERGE:       1741
cpu0->LLC RFO          ACCESS:     723356 HIT:     162834 MISS:     560522 MSHR_MERGE:          0
cpu0->LLC PREFETCH     ACCESS:    1134486 HIT:     226965 MISS:     907521 MSHR_MERGE:      17919
cpu0->LLC WRITE        ACCESS:    1124459 HIT:     325523 MISS:     798936 MSHR_MERGE:          0
cpu0->LLC TRANSLATION  ACCESS:     644228 HIT:      75558 MISS:     568670 MSHR_MERGE:          0
cpu0->LLC PREFETCH REQUESTED:          0 ISSUED:          0 USEFUL:          0 USELESS:          0
cpu0->LLC AVERAGE MISS LATENCY: 213 cycles

DRAM Statistics

Channel 0 RQ ROW_BUFFER_HIT:      69814
  ROW_BUFFER_MISS:    2515776
  AVG DBUS CONGESTED CYCLE: 19.21
Channel 0 WQ ROW_BUFFER_HIT:     143253
  ROW_BUFFER_MISS:     713490
  FULL:        144
Channel 0 REFRESHES ISSUED:      20096
