[VMEM] WARNING: physical memory size is smaller than virtual memory size.
WARNING: option --warmup_instructions is deprecated. Use --warmup-instructions instead.
WARNING: option --simulation_instructions is deprecated. Use --simulation-instructions instead.

*** ChampSim Multicore Out-of-Order Simulator ***
Warmup Instructions: 20000000
Simulation Instructions: 50000000
Number of CPUs: 1
Page size: 8192

Off-chip DRAM Size: 16 GiB Channels: 1 Width: 64-bit Data Rate: 3205 MT/s
Heartbeat CPU 0 instructions: 10000000 cycles: 4304386 heartbeat IPC: 2.323 cumulative IPC: 2.323 (Simulation time: 00 hr 00 min 46 sec)
Heartbeat CPU 0 instructions: 20000000 cycles: 8600122 heartbeat IPC: 2.328 cumulative IPC: 2.326 (Simulation time: 00 hr 01 min 35 sec)
Warmup finished CPU 0 instructions: 20000000 cycles: 8600122 cumulative IPC: 2.326 (Simulation time: 00 hr 01 min 35 sec)
Warmup complete CPU 0 instructions: 20000000 cycles: 8600122 cumulative IPC: 2.326 (Simulation time: 00 hr 01 min 35 sec)
Heartbeat CPU 0 instructions: 30000003 cycles: 16362041 heartbeat IPC: 1.288 cumulative IPC: 1.288 (Simulation time: 00 hr 02 min 41 sec)
Heartbeat CPU 0 instructions: 40000003 cycles: 24134290 heartbeat IPC: 1.287 cumulative IPC: 1.287 (Simulation time: 00 hr 03 min 48 sec)
Heartbeat CPU 0 instructions: 50000003 cycles: 31874768 heartbeat IPC: 1.292 cumulative IPC: 1.289 (Simulation time: 00 hr 04 min 56 sec)
Heartbeat CPU 0 instructions: 60000005 cycles: 39645082 heartbeat IPC: 1.287 cumulative IPC: 1.288 (Simulation time: 00 hr 06 min 03 sec)
Simulation finished CPU 0 instructions: 50000000 cycles: 38798787 cumulative IPC: 1.289 (Simulation time: 00 hr 07 min 13 sec)
Simulation complete CPU 0 instructions: 50000000 cycles: 38798787 cumulative IPC: 1.289 (Simulation time: 00 hr 07 min 13 sec)

ChampSim completed all CPUs

=== Simulation ===
CPU 0 runs traces/603.bwaves_s-1740B.champsimtrace.xz

Region of Interest Statistics

CPU 0 cumulative IPC: 1.289 instructions: 50000000 cycles: 38798787
CPU 0 Branch Prediction Accuracy: 99.97% MPKI: 0.00734 Average ROB Occupancy at Mispredict: 189.9
Branch type MPKI
BRANCH_DIRECT_JUMP: 0
BRANCH_INDIRECT: 0
BRANCH_CONDITIONAL: 0.00734
BRANCH_DIRECT_CALL: 0
BRANCH_INDIRECT_CALL: 0
BRANCH_RETURN: 0

cpu0->cpu0_STLB TOTAL        ACCESS:       7425 HIT:        365 MISS:       7060 MSHR_MERGE:          0
cpu0->cpu0_STLB LOAD         ACCESS:       7425 HIT:        365 MISS:       7060 MSHR_MERGE:          0
cpu0->cpu0_STLB RFO          ACCESS:          0 HIT:          0 MISS:          0 MSHR_MERGE:          0
cpu0->cpu0_STLB PREFETCH     ACCESS:          0 HIT:          0 MISS:          0 MSHR_MERGE:          0
cpu0->cpu0_STLB WRITE        ACCESS:          0 HIT:          0 MISS:          0 MSHR_MERGE:          0
cpu0->cpu0_STLB TRANSLATION  ACCESS:          0 HIT:          0 MISS:          0 MSHR_MERGE:          0
cpu0->cpu0_STLB PREFETCH REQUESTED:          0 ISSUED:          0 USEFUL:          0 USELESS:          0
cpu0->cpu0_STLB AVERAGE MISS LATENCY: 691.7 cycles
cpu0->cpu0_L2C TOTAL        ACCESS:    4019418 HIT:    2186855 MISS:    1832563 MSHR_MERGE:     616017
cpu0->cpu0_L2C LOAD         ACCESS:    1019918 HIT:     985946 MISS:      33972 MSHR_MERGE:      17239
cpu0->cpu0_L2C RFO          ACCESS:      32724 HIT:       8362 MISS:      24362 MSHR_MERGE:          0
cpu0->cpu0_L2C PREFETCH     ACCESS:    2916765 HIT:    1152969 MISS:    1763796 MSHR_MERGE:     598778
cpu0->cpu0_L2C WRITE        ACCESS:      36502 HIT:      36495 MISS:          7 MSHR_MERGE:          0
cpu0->cpu0_L2C TRANSLATION  ACCESS:      13509 HIT:       3083 MISS:      10426 MSHR_MERGE:          0
cpu0->cpu0_L2C PREFETCH REQUESTED:    3139483 ISSUED:    2916757 USEFUL:     911278 USELESS:        146
cpu0->cpu0_L2C AVERAGE MISS LATENCY: 146.1 cycles
cpu0->cpu0_L1I TOTAL        ACCESS:   12007691 HIT:   12007691 MISS:          0 MSHR_MERGE:          0
cpu0->cpu0_L1I LOAD         ACCESS:   12007691 HIT:   12007691 MISS:          0 MSHR_MERGE:          0
cpu0->cpu0_L1I RFO          ACCESS:          0 HIT:          0 MISS:          0 MSHR_MERGE:          0
cpu0->cpu0_L1I PREFETCH     ACCESS:          0 HIT:          0 MISS:          0 MSHR_MERGE:          0
cpu0->cpu0_L1I WRITE        ACCESS:          0 HIT:          0 MISS:          0 MSHR_MERGE:          0
cpu0->cpu0_L1I TRANSLATION  ACCESS:          0 HIT:          0 MISS:          0 MSHR_MERGE:          0
cpu0->cpu0_L1I PREFETCH REQUESTED:          0 ISSUED:          0 USEFUL:          0 USELESS:          0
cpu0->cpu0_L1I AVERAGE MISS LATENCY: - cycles
cpu0->cpu0_L1D TOTAL        ACCESS:   16970915 HIT:   15868958 MISS:    1101957 MSHR_MERGE:      35670
cpu0->cpu0_L1D LOAD         ACCESS:   14140181 HIT:   13112719 MISS:    1027462 MSHR_MERGE:       7487
cpu0->cpu0_L1D RFO          ACCESS:          0 HIT:          0 MISS:          0 MSHR_MERGE:          0
cpu0->cpu0_L1D PREFETCH     ACCESS:          0 HIT:          0 MISS:          0 MSHR_MERGE:          0
cpu0->cpu0_L1D WRITE        ACCESS:    2816699 HIT:    2755936 MISS:      60763 MSHR_MERGE:      27960
cpu0->cpu0_L1D TRANSLATION  ACCESS:      14035 HIT:        303 MISS:      13732 MSHR_MERGE:        223
cpu0->cpu0_L1D PREFETCH REQUESTED:          0 ISSUED:          0 USEFUL:          0 USELESS:          0
cpu0->cpu0_L1D AVERAGE MISS LATENCY: 19.46 cycles
cpu0->cpu0_ITLB TOTAL        ACCESS:   10871669 HIT:   10871669 MISS:          0 MSHR_MERGE:          0
cpu0->cpu0_ITLB LOAD         ACCESS:   10871669 HIT:   10871669 MISS:          0 MSHR_MERGE:          0
cpu0->cpu0_ITLB RFO          ACCESS:          0 HIT:          0 MISS:          0 MSHR_MERGE:          0
cpu0->cpu0_ITLB PREFETCH     ACCESS:          0 HIT:          0 MISS:          0 MSHR_MERGE:          0
cpu0->cpu0_ITLB WRITE        ACCESS:          0 HIT:          0 MISS:          0 MSHR_MERGE:          0
cpu0->cpu0_ITLB TRANSLATION  ACCESS:          0 HIT:          0 MISS:          0 MSHR_MERGE:          0
cpu0->cpu0_ITLB PREFETCH REQUESTED:          0 ISSUED:          0 USEFUL:          0 USELESS:          0
cpu0->cpu0_ITLB AVERAGE MISS LATENCY: - cycles
cpu0->cpu0_DTLB TOTAL        ACCESS:   16327074 HIT:   16314211 MISS:      12863 MSHR_MERGE:       5438
cpu0->cpu0_DTLB LOAD         ACCESS:   16327074 HIT:   16314211 MISS:      12863 MSHR_MERGE:       5438
cpu0->cpu0_DTLB RFO          ACCESS:          0 HIT:          0 MISS:          0 MSHR_MERGE:          0
cpu0->cpu0_DTLB PREFETCH     ACCESS:          0 HIT:          0 MISS:          0 MSHR_MERGE:          0
cpu0->cpu0_DTLB WRITE        ACCESS:          0 HIT:          0 MISS:          0 MSHR_MERGE:          0
cpu0->cpu0_DTLB TRANSLATION  ACCESS:          0 HIT:          0 MISS:          0 MSHR_MERGE:          0
cpu0->cpu0_DTLB PREFETCH REQUESTED:          0 ISSUED:          0 USEFUL:          0 USELESS:          0
cpu0->cpu0_DTLB AVERAGE MISS LATENCY: 662.7 cycles
cpu0->LLC TOTAL        ACCESS:    1240963 HIT:     195492 MISS:    1045471 MSHR_MERGE:      35571
cpu0->LLC LOAD         ACCESS:      16733 HIT:       6721 MISS:      10012 MSHR_MERGE:         97
cpu0->LLC RFO          ACCESS:      24362 HIT:          0 MISS:      24362 MSHR_MERGE:          0
cpu0->LLC PREFETCH     ACCESS:    1165018 HIT:     185841 MISS:     979177 MSHR_MERGE:      35474
cpu0->LLC WRITE        ACCESS:      24424 HIT:       2922 MISS:      21502 MSHR_MERGE:          0
cpu0->LLC TRANSLATION  ACCESS:      10426 HIT:          8 MISS:      10418 MSHR_MERGE:          0
cpu0->LLC PREFETCH REQUESTED:          0 ISSUED:          0 USEFUL:          0 USELESS:          0
cpu0->LLC AVERAGE MISS LATENCY: 116.6 cycles

DRAM Statistics

Channel 0 RQ ROW_BUFFER_HIT:      18912
  ROW_BUFFER_MISS:     969486
  AVG DBUS CONGESTED CYCLE: 4.009
Channel 0 WQ ROW_BUFFER_HIT:       1601
  ROW_BUFFER_MISS:      23596
  FULL:          0
Channel 0 REFRESHES ISSUED:       3233
