[VMEM] WARNING: physical memory size is smaller than virtual memory size.
WARNING: option --warmup_instructions is deprecated. Use --warmup-instructions instead.
WARNING: option --simulation_instructions is deprecated. Use --simulation-instructions instead.

*** ChampSim Multicore Out-of-Order Simulator ***
Warmup Instructions: 20000000
Simulation Instructions: 50000000
Number of CPUs: 1
Page size: 8192

Off-chip DRAM Size: 16 GiB Channels: 1 Width: 64-bit Data Rate: 3205 MT/s
Heartbeat CPU 0 instructions: 10000001 cycles: 4630815 heartbeat IPC: 2.159 cumulative IPC: 2.159 (Simulation time: 00 hr 00 min 59 sec)
Heartbeat CPU 0 instructions: 20000002 cycles: 9208302 heartbeat IPC: 2.185 cumulative IPC: 2.172 (Simulation time: 00 hr 02 min 00 sec)
Warmup finished CPU 0 instructions: 20000002 cycles: 9208302 cumulative IPC: 2.172 (Simulation time: 00 hr 02 min 00 sec)
Warmup complete CPU 0 instructions: 20000002 cycles: 9208302 cumulative IPC: 2.172 (Simulation time: 00 hr 02 min 00 sec)
Heartbeat CPU 0 instructions: 30000005 cycles: 38475796 heartbeat IPC: 0.3417 cumulative IPC: 0.3417 (Simulation time: 00 hr 04 min 49 sec)
Heartbeat CPU 0 instructions: 40000005 cycles: 67404753 heartbeat IPC: 0.3457 cumulative IPC: 0.3437 (Simulation time: 00 hr 07 min 38 sec)
Heartbeat CPU 0 instructions: 50000007 cycles: 96661834 heartbeat IPC: 0.3418 cumulative IPC: 0.343 (Simulation time: 00 hr 10 min 30 sec)
Heartbeat CPU 0 instructions: 60000007 cycles: 125559613 heartbeat IPC: 0.346 cumulative IPC: 0.3438 (Simulation time: 00 hr 13 min 17 sec)
Simulation finished CPU 0 instructions: 50000002 cycles: 145635945 cumulative IPC: 0.3433 (Simulation time: 00 hr 16 min 19 sec)
Simulation complete CPU 0 instructions: 50000002 cycles: 145635945 cumulative IPC: 0.3433 (Simulation time: 00 hr 16 min 19 sec)

ChampSim completed all CPUs

=== Simulation ===
CPU 0 runs traces/605.mcf_s-1152B.champsimtrace.xz

Region of Interest Statistics

CPU 0 cumulative IPC: 0.3433 instructions: 50000002 cycles: 145635945
CPU 0 Branch Prediction Accuracy: 90.19% MPKI: 24.48 Average ROB Occupancy at Mispredict: 21.37
Branch type MPKI
BRANCH_DIRECT_JUMP: 0.2057
BRANCH_INDIRECT: 0
BRANCH_CONDITIONAL: 24.27
BRANCH_DIRECT_CALL: 0
BRANCH_INDIRECT_CALL: 0.0036
BRANCH_RETURN: 2e-05

cpu0->cpu0_STLB TOTAL        ACCESS:    1006238 HIT:    1000481 MISS:       5757 MSHR_MERGE:          0
cpu0->cpu0_STLB LOAD         ACCESS:    1006238 HIT:    1000481 MISS:       5757 MSHR_MERGE:          0
cpu0->cpu0_STLB RFO          ACCESS:          0 HIT:          0 MISS:          0 MSHR_MERGE:          0
cpu0->cpu0_STLB PREFETCH     ACCESS:          0 HIT:          0 MISS:          0 MSHR_MERGE:          0
cpu0->cpu0_STLB WRITE        ACCESS:          0 HIT:          0 MISS:          0 MSHR_MERGE:          0
cpu0->cpu0_STLB TRANSLATION  ACCESS:          0 HIT:          0 MISS:          0 MSHR_MERGE:          0
cpu0->cpu0_STLB PREFETCH REQUESTED:          0 ISSUED:          0 USEFUL:          0 USELESS:          0
cpu0->cpu0_STLB AVERAGE MISS LATENCY: 613.2 cycles
cpu0->cpu0_L2C TOTAL        ACCESS:    5745574 HIT:    3010095 MISS:    2735479 MSHR_MERGE:     421598
cpu0->cpu0_L2C LOAD         ACCESS:    2552740 HIT:    1020994 MISS:    1531746 MSHR_MERGE:      28537
cpu0->cpu0_L2C RFO          ACCESS:     187385 HIT:      51785 MISS:     135600 MSHR_MERGE:          0
cpu0->cpu0_L2C PREFETCH     ACCESS:    2731296 HIT:    1670281 MISS:    1061015 MSHR_MERGE:     393061
cpu0->cpu0_L2C WRITE        ACCESS:     265804 HIT:     265490 MISS:        314 MSHR_MERGE:          0
cpu0->cpu0_L2C TRANSLATION  ACCESS:       8349 HIT:       1545 MISS:       6804 MSHR_MERGE:          0
cpu0->cpu0_L2C PREFETCH REQUESTED:    2731364 ISSUED:    2731296 USEFUL:     633529 USELESS:      34424
cpu0->cpu0_L2C AVERAGE MISS LATENCY: 51.33 cycles
cpu0->cpu0_L1I TOTAL        ACCESS:     415221 HIT:     415221 MISS:          0 MSHR_MERGE:          0
cpu0->cpu0_L1I LOAD         ACCESS:     415221 HIT:     415221 MISS:          0 MSHR_MERGE:          0
cpu0->cpu0_L1I RFO          ACCESS:          0 HIT:          0 MISS:          0 MSHR_MERGE:          0
cpu0->cpu0_L1I PREFETCH     ACCESS:          0 HIT:          0 MISS:          0 MSHR_MERGE:          0
cpu0->cpu0_L1I WRITE        ACCESS:          0 HIT:          0 MISS:          0 MSHR_MERGE:          0
cpu0->cpu0_L1I TRANSLATION  ACCESS:          0 HIT:          0 MISS:          0 MSHR_MERGE:          0
cpu0->cpu0_L1I PREFETCH REQUESTED:          0 ISSUED:          0 USEFUL:          0 USELESS:          0
cpu0->cpu0_L1I AVERAGE MISS LATENCY: - cycles
cpu0->cpu0_L1D TOTAL        ACCESS:   17980583 HIT:   14406403 MISS:    3574180 MSHR_MERGE:     825703
cpu0->cpu0_L1D LOAD         ACCESS:   12804654 HIT:    9720461 MISS:    3084193 MSHR_MERGE:     531453
cpu0->cpu0_L1D RFO          ACCESS:          0 HIT:          0 MISS:          0 MSHR_MERGE:          0
cpu0->cpu0_L1D PREFETCH     ACCESS:          0 HIT:          0 MISS:          0 MSHR_MERGE:          0
cpu0->cpu0_L1D WRITE        ACCESS:    5164319 HIT:    4682681 MISS:     481638 MSHR_MERGE:     294250
cpu0->cpu0_L1D TRANSLATION  ACCESS:      11610 HIT:       3261 MISS:       8349 MSHR_MERGE:          0
cpu0->cpu0_L1D PREFETCH REQUESTED:          0 ISSUED:          0 USEFUL:          0 USELESS:          0
cpu0->cpu0_L1D AVERAGE MISS LATENCY: 39.89 cycles
cpu0->cpu0_ITLB TOTAL        ACCESS:     382374 HIT:     382374 MISS:          0 MSHR_MERGE:          0
cpu0->cpu0_ITLB LOAD         ACCESS:     382374 HIT:     382374 MISS:          0 MSHR_MERGE:          0
cpu0->cpu0_ITLB RFO          ACCESS:          0 HIT:          0 MISS:          0 MSHR_MERGE:          0
cpu0->cpu0_ITLB PREFETCH     ACCESS:          0 HIT:          0 MISS:          0 MSHR_MERGE:          0
cpu0->cpu0_ITLB WRITE        ACCESS:          0 HIT:          0 MISS:          0 MSHR_MERGE:          0
cpu0->cpu0_ITLB TRANSLATION  ACCESS:          0 HIT:          0 MISS:          0 MSHR_MERGE:          0
cpu0->cpu0_ITLB PREFETCH REQUESTED:          0 ISSUED:          0 USEFUL:          0 USELESS:          0
cpu0->cpu0_ITLB AVERAGE MISS LATENCY: - cycles
cpu0->cpu0_DTLB TOTAL        ACCESS:   16841055 HIT:   15647443 MISS:    1193612 MSHR_MERGE:     187374
cpu0->cpu0_DTLB LOAD         ACCESS:   16841055 HIT:   15647443 MISS:    1193612 MSHR_MERGE:     187374
cpu0->cpu0_DTLB RFO          ACCESS:          0 HIT:          0 MISS:          0 MSHR_MERGE:          0
cpu0->cpu0_DTLB PREFETCH     ACCESS:          0 HIT:          0 MISS:          0 MSHR_MERGE:          0
cpu0->cpu0_DTLB WRITE        ACCESS:          0 HIT:          0 MISS:          0 MSHR_MERGE:          0
cpu0->cpu0_DTLB TRANSLATION  ACCESS:          0 HIT:          0 MISS:          0 MSHR_MERGE:          0
cpu0->cpu0_DTLB PREFETCH REQUESTED:          0 ISSUED:          0 USEFUL:          0 USELESS:          0
cpu0->cpu0_DTLB AVERAGE MISS LATENCY: 7.514 cycles
cpu0->LLC TOTAL        ACCESS:    2517180 HIT:    1440270 MISS:    1076910 MSHR_MERGE:          0
cpu0->LLC LOAD         ACCESS:    1503208 HIT:    1095180 MISS:     408028 MSHR_MERGE:          0
cpu0->LLC RFO          ACCESS:     135600 HIT:     133971 MISS:       1629 MSHR_MERGE:          0
cpu0->LLC PREFETCH     ACCESS:     667954 HIT:      11826 MISS:     656128 MSHR_MERGE:          0
cpu0->LLC WRITE        ACCESS:     203614 HIT:     199281 MISS:       4333 MSHR_MERGE:          0
cpu0->LLC TRANSLATION  ACCESS:       6804 HIT:         12 MISS:       6792 MSHR_MERGE:          0
cpu0->LLC PREFETCH REQUESTED:          0 ISSUED:          0 USEFUL:          0 USELESS:          0
cpu0->LLC AVERAGE MISS LATENCY: 133.3 cycles

DRAM Statistics

Channel 0 RQ ROW_BUFFER_HIT:     294330
  ROW_BUFFER_MISS:     778237
  AVG DBUS CONGESTED CYCLE: 17.29
Channel 0 WQ ROW_BUFFER_HIT:       1514
  ROW_BUFFER_MISS:       5141
  FULL:          0
Channel 0 REFRESHES ISSUED:      12136
