[VMEM] WARNING: physical memory size is smaller than virtual memory size.
WARNING: option --warmup_instructions is deprecated. Use --warmup-instructions instead.
WARNING: option --simulation_instructions is deprecated. Use --simulation-instructions instead.

*** ChampSim Multicore Out-of-Order Simulator ***
Warmup Instructions: 20000000
Simulation Instructions: 50000000
Number of CPUs: 1
Page size: 8192

Off-chip DRAM Size: 16 GiB Channels: 1 Width: 64-bit Data Rate: 3205 MT/s
Heartbeat CPU 0 instructions: 10000000 cycles: 4303947 heartbeat IPC: 2.323 cumulative IPC: 2.323 (Simulation time: 00 hr 00 min 42 sec)
Heartbeat CPU 0 instructions: 20000000 cycles: 8599642 heartbeat IPC: 2.328 cumulative IPC: 2.326 (Simulation time: 00 hr 01 min 26 sec)
Warmup finished CPU 0 instructions: 20000000 cycles: 8599642 cumulative IPC: 2.326 (Simulation time: 00 hr 01 min 26 sec)
Warmup complete CPU 0 instructions: 20000000 cycles: 8599642 cumulative IPC: 2.326 (Simulation time: 00 hr 01 min 26 sec)
Heartbeat CPU 0 instructions: 30000002 cycles: 17148285 heartbeat IPC: 1.17 cumulative IPC: 1.17 (Simulation time: 00 hr 02 min 31 sec)
Heartbeat CPU 0 instructions: 40000003 cycles: 25701825 heartbeat IPC: 1.169 cumulative IPC: 1.169 (Simulation time: 00 hr 03 min 34 sec)
Heartbeat CPU 0 instructions: 50000003 cycles: 34229935 heartbeat IPC: 1.173 cumulative IPC: 1.17 (Simulation time: 00 hr 04 min 36 sec)
Heartbeat CPU 0 instructions: 60000005 cycles: 42776314 heartbeat IPC: 1.17 cumulative IPC: 1.17 (Simulation time: 00 hr 05 min 38 sec)
Simulation finished CPU 0 instructions: 50000000 cycles: 42725595 cumulative IPC: 1.17 (Simulation time: 00 hr 06 min 42 sec)
Simulation complete CPU 0 instructions: 50000000 cycles: 42725595 cumulative IPC: 1.17 (Simulation time: 00 hr 06 min 42 sec)

ChampSim completed all CPUs

=== Simulation ===
CPU 0 runs traces/603.bwaves_s-1740B.champsimtrace.xz

Region of Interest Statistics

CPU 0 cumulative IPC: 1.17 instructions: 50000000 cycles: 42725595
CPU 0 Branch Prediction Accuracy: 99.97% MPKI: 0.00734 Average ROB Occupancy at Mispredict: 190
Branch type MPKI
BRANCH_DIRECT_JUMP: 0
BRANCH_INDIRECT: 0
BRANCH_CONDITIONAL: 0.00734
BRANCH_DIRECT_CALL: 0
BRANCH_INDIRECT_CALL: 0
BRANCH_RETURN: 0

cpu0->cpu0_STLB TOTAL        ACCESS:       7425 HIT:        365 MISS:       7060 MSHR_MERGE:          0
cpu0->cpu0_STLB LOAD         ACCESS:       7425 HIT:        365 MISS:       7060 MSHR_MERGE:          0
cpu0->cpu0_STLB RFO          ACCESS:          0 HIT:          0 MISS:          0 MSHR_MERGE:          0
cpu0->cpu0_STLB PREFETCH     ACCESS:          0 HIT:          0 MISS:          0 MSHR_MERGE:          0
cpu0->cpu0_STLB WRITE        ACCESS:          0 HIT:          0 MISS:          0 MSHR_MERGE:          0
cpu0->cpu0_STLB TRANSLATION  ACCESS:          0 HIT:          0 MISS:          0 MSHR_MERGE:          0
cpu0->cpu0_STLB PREFETCH REQUESTED:          0 ISSUED:          0 USEFUL:          0 USELESS:          0
cpu0->cpu0_STLB AVERAGE MISS LATENCY: 691.3 cycles
cpu0->cpu0_L2C TOTAL        ACCESS:    3081874 HIT:    1820930 MISS:    1260944 MSHR_MERGE:     298262
cpu0->cpu0_L2C LOAD         ACCESS:    1019560 HIT:     877073 MISS:     142487 MSHR_MERGE:     123677
cpu0->cpu0_L2C RFO          ACCESS:      32737 HIT:       8375 MISS:      24362 MSHR_MERGE:          0
cpu0->cpu0_L2C PREFETCH     ACCESS:    1979567 HIT:     895915 MISS:    1083652 MSHR_MERGE:     174585
cpu0->cpu0_L2C WRITE        ACCESS:      36494 HIT:      36487 MISS:          7 MSHR_MERGE:          0
cpu0->cpu0_L2C TRANSLATION  ACCESS:      13516 HIT:       3080 MISS:      10436 MSHR_MERGE:          0
cpu0->cpu0_L2C PREFETCH REQUESTED:    2026936 ISSUED:    1979559 USEFUL:     908878 USELESS:        190
cpu0->cpu0_L2C AVERAGE MISS LATENCY: 133.6 cycles
cpu0->cpu0_L1I TOTAL        ACCESS:   12003237 HIT:   12003237 MISS:          0 MSHR_MERGE:          0
cpu0->cpu0_L1I LOAD         ACCESS:   12003237 HIT:   12003237 MISS:          0 MSHR_MERGE:          0
cpu0->cpu0_L1I RFO          ACCESS:          0 HIT:          0 MISS:          0 MSHR_MERGE:          0
cpu0->cpu0_L1I PREFETCH     ACCESS:          0 HIT:          0 MISS:          0 MSHR_MERGE:          0
cpu0->cpu0_L1I WRITE        ACCESS:          0 HIT:          0 MISS:          0 MSHR_MERGE:          0
cpu0->cpu0_L1I TRANSLATION  ACCESS:          0 HIT:          0 MISS:          0 MSHR_MERGE:          0
cpu0->cpu0_L1I PREFETCH REQUESTED:          0 ISSUED:          0 USEFUL:          0 USELESS:          0
cpu0->cpu0_L1I AVERAGE MISS LATENCY: - cycles
cpu0->cpu0_L1D TOTAL        ACCESS:   17005457 HIT:   15862782 MISS:    1142675 MSHR_MERGE:      76698
cpu0->cpu0_L1D LOAD         ACCESS:   14174706 HIT:   13104417 MISS:    1070289 MSHR_MERGE:      50657
cpu0->cpu0_L1D RFO          ACCESS:          0 HIT:          0 MISS:          0 MSHR_MERGE:          0
cpu0->cpu0_L1D PREFETCH     ACCESS:          0 HIT:          0 MISS:          0 MSHR_MERGE:          0
cpu0->cpu0_L1D WRITE        ACCESS:    2816699 HIT:    2758076 MISS:      58623 MSHR_MERGE:      25794
cpu0->cpu0_L1D TRANSLATION  ACCESS:      14052 HIT:        289 MISS:      13763 MSHR_MERGE:        247
cpu0->cpu0_L1D PREFETCH REQUESTED:          0 ISSUED:          0 USEFUL:          0 USELESS:          0
cpu0->cpu0_L1D AVERAGE MISS LATENCY: 38.8 cycles
cpu0->cpu0_ITLB TOTAL        ACCESS:   10868593 HIT:   10868593 MISS:          0 MSHR_MERGE:          0
cpu0->cpu0_ITLB LOAD         ACCESS:   10868593 HIT:   10868593 MISS:          0 MSHR_MERGE:          0
cpu0->cpu0_ITLB RFO          ACCESS:          0 HIT:          0 MISS:          0 MSHR_MERGE:          0
cpu0->cpu0_ITLB PREFETCH     ACCESS:          0 HIT:          0 MISS:          0 MSHR_MERGE:          0
cpu0->cpu0_ITLB WRITE        ACCESS:          0 HIT:          0 MISS:          0 MSHR_MERGE:          0
cpu0->cpu0_ITLB TRANSLATION  ACCESS:          0 HIT:          0 MISS:          0 MSHR_MERGE:          0
cpu0->cpu0_ITLB PREFETCH REQUESTED:          0 ISSUED:          0 USEFUL:          0 USELESS:          0
cpu0->cpu0_ITLB AVERAGE MISS LATENCY: - cycles
cpu0->cpu0_DTLB TOTAL        ACCESS:   16349744 HIT:   16337056 MISS:      12688 MSHR_MERGE:       5263
cpu0->cpu0_DTLB LOAD         ACCESS:   16349744 HIT:   16337056 MISS:      12688 MSHR_MERGE:       5263
cpu0->cpu0_DTLB RFO          ACCESS:          0 HIT:          0 MISS:          0 MSHR_MERGE:          0
cpu0->cpu0_DTLB PREFETCH     ACCESS:          0 HIT:          0 MISS:          0 MSHR_MERGE:          0
cpu0->cpu0_DTLB WRITE        ACCESS:          0 HIT:          0 MISS:          0 MSHR_MERGE:          0
cpu0->cpu0_DTLB TRANSLATION  ACCESS:          0 HIT:          0 MISS:          0 MSHR_MERGE:          0
cpu0->cpu0_DTLB PREFETCH REQUESTED:          0 ISSUED:          0 USEFUL:          0 USELESS:          0
cpu0->cpu0_DTLB AVERAGE MISS LATENCY: 662.3 cycles
cpu0->LLC TOTAL        ACCESS:     987100 HIT:       4541 MISS:     982559 MSHR_MERGE:          0
cpu0->LLC LOAD         ACCESS:      18810 HIT:        103 MISS:      18707 MSHR_MERGE:          0
cpu0->LLC RFO          ACCESS:      24362 HIT:          0 MISS:      24362 MSHR_MERGE:          0
cpu0->LLC PREFETCH     ACCESS:     909067 HIT:        946 MISS:     908121 MSHR_MERGE:          0
cpu0->LLC WRITE        ACCESS:      24425 HIT:       3478 MISS:      20947 MSHR_MERGE:          0
cpu0->LLC TRANSLATION  ACCESS:      10436 HIT:         14 MISS:      10422 MSHR_MERGE:          0
cpu0->LLC PREFETCH REQUESTED:          0 ISSUED:          0 USEFUL:          0 USELESS:          0
cpu0->LLC AVERAGE MISS LATENCY: 123.8 cycles

DRAM Statistics

Channel 0 RQ ROW_BUFFER_HIT:        690
  ROW_BUFFER_MISS:     960922
  AVG DBUS CONGESTED CYCLE: 4.096
Channel 0 WQ ROW_BUFFER_HIT:       2138
  ROW_BUFFER_MISS:      22203
  FULL:          0
Channel 0 REFRESHES ISSUED:       3561
