[VMEM] WARNING: physical memory size is smaller than virtual memory size.
WARNING: option --warmup_instructions is deprecated. Use --warmup-instructions instead.
WARNING: option --simulation_instructions is deprecated. Use --simulation-instructions instead.

*** ChampSim Multicore Out-of-Order Simulator ***
Warmup Instructions: 20000000
Simulation Instructions: 50000000
Number of CPUs: 1
Page size: 8192

Off-chip DRAM Size: 16 GiB Channels: 1 Width: 64-bit Data Rate: 3205 MT/s
Heartbeat CPU 0 instructions: 10000003 cycles: 6086604 heartbeat IPC: 1.643 cumulative IPC: 1.643 (Simulation time: 00 hr 00 min 49 sec)
Heartbeat CPU 0 instructions: 20000003 cycles: 12019796 heartbeat IPC: 1.685 cumulative IPC: 1.664 (Simulation time: 00 hr 01 min 41 sec)
Warmup finished CPU 0 instructions: 20000003 cycles: 12019796 cumulative IPC: 1.664 (Simulation time: 00 hr 01 min 41 sec)
Warmup complete CPU 0 instructions: 20000003 cycles: 12019796 cumulative IPC: 1.664 (Simulation time: 00 hr 01 min 41 sec)
Heartbeat CPU 0 instructions: 30000003 cycles: 27801013 heartbeat IPC: 0.6337 cumulative IPC: 0.6337 (Simulation time: 00 hr 03 min 13 sec)
Heartbeat CPU 0 instructions: 40000005 cycles: 37091801 heartbeat IPC: 1.076 cumulative IPC: 0.7977 (Simulation time: 00 hr 04 min 23 sec)
Heartbeat CPU 0 instructions: 50000007 cycles: 49769211 heartbeat IPC: 0.7888 cumulative IPC: 0.7947 (Simulation time: 00 hr 05 min 40 sec)
Heartbeat CPU 0 instructions: 60000010 cycles: 68897101 heartbeat IPC: 0.5228 cumulative IPC: 0.7033 (Simulation time: 00 hr 07 min 26 sec)
Simulation finished CPU 0 instructions: 50000003 cycles: 69045122 cumulative IPC: 0.7242 (Simulation time: 00 hr 08 min 43 sec)
Simulation complete CPU 0 instructions: 50000003 cycles: 69045122 cumulative IPC: 0.7242 (Simulation time: 00 hr 08 min 43 sec)

ChampSim completed all CPUs

=== Simulation ===
CPU 0 runs traces/429.mcf-217B.champsimtrace.xz

Region of Interest Statistics

CPU 0 cumulative IPC: 0.7242 instructions: 50000003 cycles: 69045122
CPU 0 Branch Prediction Accuracy: 98.95% MPKI: 1.194 Average ROB Occupancy at Mispredict: 121.5
Branch type MPKI
BRANCH_DIRECT_JUMP: 0
BRANCH_INDIRECT: 0
BRANCH_CONDITIONAL: 1.194
BRANCH_DIRECT_CALL: 0
BRANCH_INDIRECT_CALL: 0
BRANCH_RETURN: 0

cpu0->cpu0_STLB TOTAL        ACCESS:      57987 HIT:      56137 MISS:       1850 MSHR_MERGE:          0
cpu0->cpu0_STLB LOAD         ACCESS:      57987 HIT:      56137 MISS:       1850 MSHR_MERGE:          0
cpu0->cpu0_STLB RFO          ACCESS:          0 HIT:          0 MISS:          0 MSHR_MERGE:          0
cpu0->cpu0_STLB PREFETCH     ACCESS:          0 HIT:          0 MISS:          0 MSHR_MERGE:          0
cpu0->cpu0_STLB WRITE        ACCESS:          0 HIT:          0 MISS:          0 MSHR_MERGE:          0
cpu0->cpu0_STLB TRANSLATION  ACCESS:          0 HIT:          0 MISS:          0 MSHR_MERGE:          0
cpu0->cpu0_STLB PREFETCH REQUESTED:          0 ISSUED:          0 USEFUL:          0 USELESS:          0
cpu0->cpu0_STLB AVERAGE MISS LATENCY: 698.6 cycles
cpu0->cpu0_L2C TOTAL        ACCESS:    9520870 HIT:    4932943 MISS:    4587927 MSHR_MERGE:    1672754
cpu0->cpu0_L2C LOAD         ACCESS:    2598468 HIT:    1902611 MISS:     695857 MSHR_MERGE:     353503
cpu0->cpu0_L2C RFO          ACCESS:       1567 HIT:       1416 MISS:        151 MSHR_MERGE:          2
cpu0->cpu0_L2C PREFETCH     ACCESS:    6821222 HIT:    2932987 MISS:    3888235 MSHR_MERGE:    1319249
cpu0->cpu0_L2C WRITE        ACCESS:      96219 HIT:      95446 MISS:        773 MSHR_MERGE:          0
cpu0->cpu0_L2C TRANSLATION  ACCESS:       3394 HIT:        483 MISS:       2911 MSHR_MERGE:          0
cpu0->cpu0_L2C PREFETCH REQUESTED:    6821402 ISSUED:    6821206 USEFUL:    2237130 USELESS:     331809
cpu0->cpu0_L2C AVERAGE MISS LATENCY: 79.09 cycles
cpu0->cpu0_L1I TOTAL        ACCESS:    9332344 HIT:    9332344 MISS:          0 MSHR_MERGE:          0
cpu0->cpu0_L1I LOAD         ACCESS:    9332344 HIT:    9332344 MISS:          0 MSHR_MERGE:          0
cpu0->cpu0_L1I RFO          ACCESS:          0 HIT:          0 MISS:          0 MSHR_MERGE:          0
cpu0->cpu0_L1I PREFETCH     ACCESS:          0 HIT:          0 MISS:          0 MSHR_MERGE:          0
cpu0->cpu0_L1I WRITE        ACCESS:          0 HIT:          0 MISS:          0 MSHR_MERGE:          0
cpu0->cpu0_L1I TRANSLATION  ACCESS:          0 HIT:          0 MISS:          0 MSHR_MERGE:          0
cpu0->cpu0_L1I PREFETCH REQUESTED:          0 ISSUED:          0 USEFUL:          0 USELESS:          0
cpu0->cpu0_L1I AVERAGE MISS LATENCY: - cycles
cpu0->cpu0_L1D TOTAL        ACCESS:   16482933 HIT:   13773614 MISS:    2709319 MSHR_MERGE:     105863
cpu0->cpu0_L1D LOAD         ACCESS:    8602278 HIT:    5899957 MISS:    2702321 MSHR_MERGE:     103826
cpu0->cpu0_L1D RFO          ACCESS:          0 HIT:          0 MISS:          0 MSHR_MERGE:          0
cpu0->cpu0_L1D PREFETCH     ACCESS:          0 HIT:          0 MISS:          0 MSHR_MERGE:          0
cpu0->cpu0_L1D WRITE        ACCESS:    7876948 HIT:    7873344 MISS:       3604 MSHR_MERGE:       2037
cpu0->cpu0_L1D TRANSLATION  ACCESS:       3707 HIT:        313 MISS:       3394 MSHR_MERGE:          0
cpu0->cpu0_L1D PREFETCH REQUESTED:          0 ISSUED:          0 USEFUL:          0 USELESS:          0
cpu0->cpu0_L1D AVERAGE MISS LATENCY: 29.54 cycles
cpu0->cpu0_ITLB TOTAL        ACCESS:    8156418 HIT:    8156418 MISS:          0 MSHR_MERGE:          0
cpu0->cpu0_ITLB LOAD         ACCESS:    8156418 HIT:    8156418 MISS:          0 MSHR_MERGE:          0
cpu0->cpu0_ITLB RFO          ACCESS:          0 HIT:          0 MISS:          0 MSHR_MERGE:          0
cpu0->cpu0_ITLB PREFETCH     ACCESS:          0 HIT:          0 MISS:          0 MSHR_MERGE:          0
cpu0->cpu0_ITLB WRITE        ACCESS:          0 HIT:          0 MISS:          0 MSHR_MERGE:          0
cpu0->cpu0_ITLB TRANSLATION  ACCESS:          0 HIT:          0 MISS:          0 MSHR_MERGE:          0
cpu0->cpu0_ITLB PREFETCH REQUESTED:          0 ISSUED:          0 USEFUL:          0 USELESS:          0
cpu0->cpu0_ITLB AVERAGE MISS LATENCY: - cycles
cpu0->cpu0_DTLB TOTAL        ACCESS:   14968737 HIT:   14894767 MISS:      73970 MSHR_MERGE:      15983
cpu0->cpu0_DTLB LOAD         ACCESS:   14968737 HIT:   14894767 MISS:      73970 MSHR_MERGE:      15983
cpu0->cpu0_DTLB RFO          ACCESS:          0 HIT:          0 MISS:          0 MSHR_MERGE:          0
cpu0->cpu0_DTLB PREFETCH     ACCESS:          0 HIT:          0 MISS:          0 MSHR_MERGE:          0
cpu0->cpu0_DTLB WRITE        ACCESS:          0 HIT:          0 MISS:          0 MSHR_MERGE:          0
cpu0->cpu0_DTLB TRANSLATION  ACCESS:          0 HIT:          0 MISS:          0 MSHR_MERGE:          0
cpu0->cpu0_DTLB PREFETCH REQUESTED:          0 ISSUED:          0 USEFUL:          0 USELESS:          0
cpu0->cpu0_DTLB AVERAGE MISS LATENCY: 26.32 cycles
cpu0->LLC TOTAL        ACCESS:    2995468 HIT:    1514219 MISS:    1481249 MSHR_MERGE:          0
cpu0->LLC LOAD         ACCESS:     342354 HIT:     150110 MISS:     192244 MSHR_MERGE:          0
cpu0->LLC RFO          ACCESS:        149 HIT:        118 MISS:         31 MSHR_MERGE:          0
cpu0->LLC PREFETCH     ACCESS:    2568985 HIT:    1324051 MISS:    1244934 MSHR_MERGE:          0
cpu0->LLC WRITE        ACCESS:      81069 HIT:      39907 MISS:      41162 MSHR_MERGE:          0
cpu0->LLC TRANSLATION  ACCESS:       2911 HIT:         33 MISS:       2878 MSHR_MERGE:          0
cpu0->LLC PREFETCH REQUESTED:          0 ISSUED:          0 USEFUL:          0 USELESS:          0
cpu0->LLC AVERAGE MISS LATENCY: 125.9 cycles

DRAM Statistics

Channel 0 RQ ROW_BUFFER_HIT:     244399
  ROW_BUFFER_MISS:    1195610
  AVG DBUS CONGESTED CYCLE: 10.28
Channel 0 WQ ROW_BUFFER_HIT:      12237
  ROW_BUFFER_MISS:      62106
  FULL:          0
Channel 0 REFRESHES ISSUED:       5754
