[VMEM] WARNING: physical memory size is smaller than virtual memory size.
WARNING: option --warmup_instructions is deprecated. Use --warmup-instructions instead.
WARNING: option --simulation_instructions is deprecated. Use --simulation-instructions instead.

*** ChampSim Multicore Out-of-Order Simulator ***
Warmup Instructions: 20000000
Simulation Instructions: 50000000
Number of CPUs: 1
Page size: 8192

Off-chip DRAM Size: 16 GiB Channels: 1 Width: 64-bit Data Rate: 3205 MT/s
Heartbeat CPU 0 instructions: 10000000 cycles: 4305936 heartbeat IPC: 2.322 cumulative IPC: 2.322 (Simulation time: 00 hr 00 min 47 sec)
Heartbeat CPU 0 instructions: 20000000 cycles: 8604496 heartbeat IPC: 2.326 cumulative IPC: 2.324 (Simulation time: 00 hr 01 min 34 sec)
Warmup finished CPU 0 instructions: 20000000 cycles: 8604496 cumulative IPC: 2.324 (Simulation time: 00 hr 01 min 34 sec)
Warmup complete CPU 0 instructions: 20000000 cycles: 8604496 cumulative IPC: 2.324 (Simulation time: 00 hr 01 min 34 sec)
Heartbeat CPU 0 instructions: 30000002 cycles: 21162273 heartbeat IPC: 0.7963 cumulative IPC: 0.7963 (Simulation time: 00 hr 03 min 08 sec)
Heartbeat CPU 0 instructions: 40000002 cycles: 33720180 heartbeat IPC: 0.7963 cumulative IPC: 0.7963 (Simulation time: 00 hr 04 min 47 sec)
Heartbeat CPU 0 instructions: 50000003 cycles: 46215533 heartbeat IPC: 0.8003 cumulative IPC: 0.7976 (Simulation time: 00 hr 06 min 23 sec)
Heartbeat CPU 0 instructions: 60000005 cycles: 58753692 heartbeat IPC: 0.7976 cumulative IPC: 0.7976 (Simulation time: 00 hr 07 min 56 sec)
Simulation finished CPU 0 instructions: 50000001 cycles: 62706305 cumulative IPC: 0.7974 (Simulation time: 00 hr 09 min 31 sec)
Simulation complete CPU 0 instructions: 50000001 cycles: 62706305 cumulative IPC: 0.7974 (Simulation time: 00 hr 09 min 31 sec)

ChampSim completed all CPUs

=== Simulation ===
CPU 0 runs traces/603.bwaves_s-1740B.champsimtrace.xz

Region of Interest Statistics

CPU 0 cumulative IPC: 0.7974 instructions: 50000001 cycles: 62706305
CPU 0 Branch Prediction Accuracy: 99.97% MPKI: 0.00734 Average ROB Occupancy at Mispredict: 189.8
Branch type MPKI
BRANCH_DIRECT_JUMP: 0
BRANCH_INDIRECT: 0
BRANCH_CONDITIONAL: 0.00734
BRANCH_DIRECT_CALL: 0
BRANCH_INDIRECT_CALL: 0
BRANCH_RETURN: 0

cpu0->cpu0_STLB TOTAL        ACCESS:       7425 HIT:        365 MISS:       7060 MSHR_MERGE:          0
cpu0->cpu0_STLB LOAD         ACCESS:       7425 HIT:        365 MISS:       7060 MSHR_MERGE:          0
cpu0->cpu0_STLB RFO          ACCESS:          0 HIT:          0 MISS:          0 MSHR_MERGE:          0
cpu0->cpu0_STLB PREFETCH     ACCESS:          0 HIT:          0 MISS:          0 MSHR_MERGE:          0
cpu0->cpu0_STLB WRITE        ACCESS:          0 HIT:          0 MISS:          0 MSHR_MERGE:          0
cpu0->cpu0_STLB TRANSLATION  ACCESS:          0 HIT:          0 MISS:          0 MSHR_MERGE:          0
cpu0->cpu0_STLB PREFETCH REQUESTED:          0 ISSUED:          0 USEFUL:          0 USELESS:          0
cpu0->cpu0_STLB AVERAGE MISS LATENCY: 693.6 cycles
cpu0->cpu0_L2C TOTAL        ACCESS:    1104102 HIT:     135046 MISS:     969056 MSHR_MERGE:          0
cpu0->cpu0_L2C LOAD         ACCESS:    1019695 HIT:      85683 MISS:     934012 MSHR_MERGE:          0
cpu0->cpu0_L2C RFO          ACCESS:      33782 HIT:       9420 MISS:      24362 MSHR_MERGE:          0
cpu0->cpu0_L2C PREFETCH     ACCESS:          0 HIT:          0 MISS:          0 MSHR_MERGE:          0
cpu0->cpu0_L2C WRITE        ACCESS:      37113 HIT:      36844 MISS:        269 MSHR_MERGE:          0
cpu0->cpu0_L2C TRANSLATION  ACCESS:      13512 HIT:       3099 MISS:      10413 MSHR_MERGE:          0
cpu0->cpu0_L2C PREFETCH REQUESTED:          0 ISSUED:          0 USEFUL:          0 USELESS:          0
cpu0->cpu0_L2C AVERAGE MISS LATENCY: 195.3 cycles
cpu0->cpu0_L1I TOTAL        ACCESS:   11054423 HIT:   11054423 MISS:          0 MSHR_MERGE:          0
cpu0->cpu0_L1I LOAD         ACCESS:   11054423 HIT:   11054423 MISS:          0 MSHR_MERGE:          0
cpu0->cpu0_L1I RFO          ACCESS:          0 HIT:          0 MISS:          0 MSHR_MERGE:          0
cpu0->cpu0_L1I PREFETCH     ACCESS:          0 HIT:          0 MISS:          0 MSHR_MERGE:          0
cpu0->cpu0_L1I WRITE        ACCESS:          0 HIT:          0 MISS:          0 MSHR_MERGE:          0
cpu0->cpu0_L1I TRANSLATION  ACCESS:          0 HIT:          0 MISS:          0 MSHR_MERGE:          0
cpu0->cpu0_L1I PREFETCH REQUESTED:          0 ISSUED:          0 USEFUL:          0 USELESS:          0
cpu0->cpu0_L1I AVERAGE MISS LATENCY: - cycles
cpu0->cpu0_L1D TOTAL        ACCESS:   17074806 HIT:   15727310 MISS:    1347496 MSHR_MERGE:     280460
cpu0->cpu0_L1D LOAD         ACCESS:   14244046 HIT:   12959995 MISS:    1284051 MSHR_MERGE:     264321
cpu0->cpu0_L1D RFO          ACCESS:          0 HIT:          0 MISS:          0 MSHR_MERGE:          0
cpu0->cpu0_L1D PREFETCH     ACCESS:          0 HIT:          0 MISS:          0 MSHR_MERGE:          0
cpu0->cpu0_L1D WRITE        ACCESS:    2816699 HIT:    2767021 MISS:      49678 MSHR_MERGE:      15884
cpu0->cpu0_L1D TRANSLATION  ACCESS:      14061 HIT:        294 MISS:      13767 MSHR_MERGE:        255
cpu0->cpu0_L1D PREFETCH REQUESTED:          0 ISSUED:          0 USEFUL:          0 USELESS:          0
cpu0->cpu0_L1D AVERAGE MISS LATENCY: 186.3 cycles
cpu0->cpu0_ITLB TOTAL        ACCESS:    9795437 HIT:    9795437 MISS:          0 MSHR_MERGE:          0
cpu0->cpu0_ITLB LOAD         ACCESS:    9795437 HIT:    9795437 MISS:          0 MSHR_MERGE:          0
cpu0->cpu0_ITLB RFO          ACCESS:          0 HIT:          0 MISS:          0 MSHR_MERGE:          0
cpu0->cpu0_ITLB PREFETCH     ACCESS:          0 HIT:          0 MISS:          0 MSHR_MERGE:          0
cpu0->cpu0_ITLB WRITE        ACCESS:          0 HIT:          0 MISS:          0 MSHR_MERGE:          0
cpu0->cpu0_ITLB TRANSLATION  ACCESS:          0 HIT:          0 MISS:          0 MSHR_MERGE:          0
cpu0->cpu0_ITLB PREFETCH REQUESTED:          0 ISSUED:          0 USEFUL:          0 USELESS:          0
cpu0->cpu0_ITLB AVERAGE MISS LATENCY: - cycles
cpu0->cpu0_DTLB TOTAL        ACCESS:   16402518 HIT:   16390253 MISS:      12265 MSHR_MERGE:       4840
cpu0->cpu0_DTLB LOAD         ACCESS:   16402518 HIT:   16390253 MISS:      12265 MSHR_MERGE:       4840
cpu0->cpu0_DTLB RFO          ACCESS:          0 HIT:          0 MISS:          0 MSHR_MERGE:          0
cpu0->cpu0_DTLB PREFETCH     ACCESS:          0 HIT:          0 MISS:          0 MSHR_MERGE:          0
cpu0->cpu0_DTLB WRITE        ACCESS:          0 HIT:          0 MISS:          0 MSHR_MERGE:          0
cpu0->cpu0_DTLB TRANSLATION  ACCESS:          0 HIT:          0 MISS:          0 MSHR_MERGE:          0
cpu0->cpu0_DTLB PREFETCH REQUESTED:          0 ISSUED:          0 USEFUL:          0 USELESS:          0
cpu0->cpu0_DTLB AVERAGE MISS LATENCY: 664.4 cycles
cpu0->LLC TOTAL        ACCESS:     993475 HIT:       4287 MISS:     989188 MSHR_MERGE:          0
cpu0->LLC LOAD         ACCESS:     934012 HIT:       1819 MISS:     932193 MSHR_MERGE:          0
cpu0->LLC RFO          ACCESS:      24362 HIT:          0 MISS:      24362 MSHR_MERGE:          0
cpu0->LLC PREFETCH     ACCESS:          0 HIT:          0 MISS:          0 MSHR_MERGE:          0
cpu0->LLC WRITE        ACCESS:      24688 HIT:       2460 MISS:      22228 MSHR_MERGE:          0
cpu0->LLC TRANSLATION  ACCESS:      10413 HIT:          8 MISS:      10405 MSHR_MERGE:          0
cpu0->LLC PREFETCH REQUESTED:          0 ISSUED:          0 USEFUL:          0 USELESS:          0
cpu0->LLC AVERAGE MISS LATENCY: 174.9 cycles

DRAM Statistics

Channel 0 RQ ROW_BUFFER_HIT:        694
  ROW_BUFFER_MISS:     966266
  AVG DBUS CONGESTED CYCLE: 6.032
Channel 0 WQ ROW_BUFFER_HIT:       4558
  ROW_BUFFER_MISS:      19856
  FULL:          0
Channel 0 REFRESHES ISSUED:       5225
