[VMEM] WARNING: physical memory size is smaller than virtual memory size.
WARNING: option --warmup_instructions is deprecated. Use --warmup-instructions instead.
WARNING: option --simulation_instructions is deprecated. Use --simulation-instructions instead.

*** ChampSim Multicore Out-of-Order Simulator ***
Warmup Instructions: 20000000
Simulation Instructions: 50000000
Number of CPUs: 1
Page size: 8192

Off-chip DRAM Size: 16 GiB Channels: 1 Width: 64-bit Data Rate: 3205 MT/s
Heartbeat CPU 0 instructions: 10000000 cycles: 4304910 heartbeat IPC: 2.323 cumulative IPC: 2.323 (Simulation time: 00 hr 00 min 48 sec)
Heartbeat CPU 0 instructions: 20000000 cycles: 8601674 heartbeat IPC: 2.327 cumulative IPC: 2.325 (Simulation time: 00 hr 01 min 36 sec)
Warmup finished CPU 0 instructions: 20000000 cycles: 8601674 cumulative IPC: 2.325 (Simulation time: 00 hr 01 min 36 sec)
Warmup complete CPU 0 instructions: 20000000 cycles: 8601674 cumulative IPC: 2.325 (Simulation time: 00 hr 01 min 36 sec)
Heartbeat CPU 0 instructions: 30000003 cycles: 17422227 heartbeat IPC: 1.134 cumulative IPC: 1.134 (Simulation time: 00 hr 02 min 53 sec)
Heartbeat CPU 0 instructions: 40000003 cycles: 26244687 heartbeat IPC: 1.133 cumulative IPC: 1.134 (Simulation time: 00 hr 04 min 11 sec)
Heartbeat CPU 0 instructions: 50000003 cycles: 35087325 heartbeat IPC: 1.131 cumulative IPC: 1.133 (Simulation time: 00 hr 05 min 29 sec)
Heartbeat CPU 0 instructions: 60000005 cycles: 43939055 heartbeat IPC: 1.13 cumulative IPC: 1.132 (Simulation time: 00 hr 06 min 46 sec)
Simulation finished CPU 0 instructions: 50000000 cycles: 44196892 cumulative IPC: 1.131 (Simulation time: 00 hr 08 min 04 sec)
Simulation complete CPU 0 instructions: 50000000 cycles: 44196892 cumulative IPC: 1.131 (Simulation time: 00 hr 08 min 04 sec)

ChampSim completed all CPUs

=== Simulation ===
CPU 0 runs traces/603.bwaves_s-1740B.champsimtrace.xz

Region of Interest Statistics

CPU 0 cumulative IPC: 1.131 instructions: 50000000 cycles: 44196892
CPU 0 Branch Prediction Accuracy: 99.97% MPKI: 0.00734 Average ROB Occupancy at Mispredict: 190
Branch type MPKI
BRANCH_DIRECT_JUMP: 0
BRANCH_INDIRECT: 0
BRANCH_CONDITIONAL: 0.00734
BRANCH_DIRECT_CALL: 0
BRANCH_INDIRECT_CALL: 0
BRANCH_RETURN: 0

cpu0->cpu0_STLB TOTAL        ACCESS:       7425 HIT:        365 MISS:       7060 MSHR_MERGE:          0
cpu0->cpu0_STLB LOAD         ACCESS:       7425 HIT:        365 MISS:       7060 MSHR_MERGE:          0
cpu0->cpu0_STLB RFO          ACCESS:          0 HIT:          0 MISS:          0 MSHR_MERGE:          0
cpu0->cpu0_STLB PREFETCH     ACCESS:          0 HIT:          0 MISS:          0 MSHR_MERGE:          0
cpu0->cpu0_STLB WRITE        ACCESS:          0 HIT:          0 MISS:          0 MSHR_MERGE:          0
cpu0->cpu0_STLB TRANSLATION  ACCESS:          0 HIT:          0 MISS:          0 MSHR_MERGE:          0
cpu0->cpu0_STLB PREFETCH REQUESTED:          0 ISSUED:          0 USEFUL:          0 USELESS:          0
cpu0->cpu0_STLB AVERAGE MISS LATENCY: 717.2 cycles
cpu0->cpu0_L2C TOTAL        ACCESS:    3414726 HIT:    2048784 MISS:    1365942 MSHR_MERGE:     380240
cpu0->cpu0_L2C LOAD         ACCESS:    1020426 HIT:     887978 MISS:     132448 MSHR_MERGE:     109065
cpu0->cpu0_L2C RFO          ACCESS:      32862 HIT:       8500 MISS:      24362 MSHR_MERGE:          0
cpu0->cpu0_L2C PREFETCH     ACCESS:    2311293 HIT:    1112795 MISS:    1198498 MSHR_MERGE:     271175
cpu0->cpu0_L2C WRITE        ACCESS:      36572 HIT:      36422 MISS:        150 MSHR_MERGE:          0
cpu0->cpu0_L2C TRANSLATION  ACCESS:      13573 HIT:       3089 MISS:      10484 MSHR_MERGE:          0
cpu0->cpu0_L2C PREFETCH REQUESTED:    2527095 ISSUED:    2311279 USEFUL:     905314 USELESS:      21996
cpu0->cpu0_L2C AVERAGE MISS LATENCY: 133.6 cycles
cpu0->cpu0_L1I TOTAL        ACCESS:   12005361 HIT:   12005361 MISS:          0 MSHR_MERGE:          0
cpu0->cpu0_L1I LOAD         ACCESS:   12005361 HIT:   12005361 MISS:          0 MSHR_MERGE:          0
cpu0->cpu0_L1I RFO          ACCESS:          0 HIT:          0 MISS:          0 MSHR_MERGE:          0
cpu0->cpu0_L1I PREFETCH     ACCESS:          0 HIT:          0 MISS:          0 MSHR_MERGE:          0
cpu0->cpu0_L1I WRITE        ACCESS:          0 HIT:          0 MISS:          0 MSHR_MERGE:          0
cpu0->cpu0_L1I TRANSLATION  ACCESS:          0 HIT:          0 MISS:          0 MSHR_MERGE:          0
cpu0->cpu0_L1I PREFETCH REQUESTED:          0 ISSUED:          0 USEFUL:          0 USELESS:          0
cpu0->cpu0_L1I AVERAGE MISS LATENCY: - cycles
cpu0->cpu0_L1D TOTAL        ACCESS:   17048242 HIT:   15891862 MISS:    1156380 MSHR_MERGE:      89372
cpu0->cpu0_L1D LOAD         ACCESS:   14217473 HIT:   13132587 MISS:    1084886 MSHR_MERGE:      64398
cpu0->cpu0_L1D RFO          ACCESS:          0 HIT:          0 MISS:          0 MSHR_MERGE:          0
cpu0->cpu0_L1D PREFETCH     ACCESS:          0 HIT:          0 MISS:          0 MSHR_MERGE:          0
cpu0->cpu0_L1D WRITE        ACCESS:    2816699 HIT:    2759030 MISS:      57669 MSHR_MERGE:      24722
cpu0->cpu0_L1D TRANSLATION  ACCESS:      14070 HIT:        245 MISS:      13825 MSHR_MERGE:        252
cpu0->cpu0_L1D PREFETCH REQUESTED:          0 ISSUED:          0 USEFUL:          0 USELESS:          0
cpu0->cpu0_L1D AVERAGE MISS LATENCY: 41.16 cycles
cpu0->cpu0_ITLB TOTAL        ACCESS:   10872815 HIT:   10872815 MISS:          0 MSHR_MERGE:          0
cpu0->cpu0_ITLB LOAD         ACCESS:   10872815 HIT:   10872815 MISS:          0 MSHR_MERGE:          0
cpu0->cpu0_ITLB RFO          ACCESS:          0 HIT:          0 MISS:          0 MSHR_MERGE:          0
cpu0->cpu0_ITLB PREFETCH     ACCESS:          0 HIT:          0 MISS:          0 MSHR_MERGE:          0
cpu0->cpu0_ITLB WRITE        ACCESS:          0 HIT:          0 MISS:          0 MSHR_MERGE:          0
cpu0->cpu0_ITLB TRANSLATION  ACCESS:          0 HIT:          0 MISS:          0 MSHR_MERGE:          0
cpu0->cpu0_ITLB PREFETCH REQUESTED:          0 ISSUED:          0 USEFUL:          0 USELESS:          0
cpu0->cpu0_ITLB AVERAGE MISS LATENCY: - cycles
cpu0->cpu0_DTLB TOTAL        ACCESS:   16389760 HIT:   16377223 MISS:      12537 MSHR_MERGE:       5112
cpu0->cpu0_DTLB LOAD         ACCESS:   16389760 HIT:   16377223 MISS:      12537 MSHR_MERGE:       5112
cpu0->cpu0_DTLB RFO          ACCESS:          0 HIT:          0 MISS:          0 MSHR_MERGE:          0
cpu0->cpu0_DTLB PREFETCH     ACCESS:          0 HIT:          0 MISS:          0 MSHR_MERGE:          0
cpu0->cpu0_DTLB WRITE        ACCESS:          0 HIT:          0 MISS:          0 MSHR_MERGE:          0
cpu0->cpu0_DTLB TRANSLATION  ACCESS:          0 HIT:          0 MISS:          0 MSHR_MERGE:          0
cpu0->cpu0_DTLB PREFETCH REQUESTED:          0 ISSUED:          0 USEFUL:          0 USELESS:          0
cpu0->cpu0_DTLB AVERAGE MISS LATENCY: 686.9 cycles
cpu0->LLC TOTAL        ACCESS:    1010139 HIT:       4589 MISS:    1005550 MSHR_MERGE:          0
cpu0->LLC LOAD         ACCESS:      23383 HIT:        217 MISS:      23166 MSHR_MERGE:          0
cpu0->LLC RFO          ACCESS:      24362 HIT:          0 MISS:      24362 MSHR_MERGE:          0
cpu0->LLC PREFETCH     ACCESS:     927323 HIT:       1055 MISS:     926268 MSHR_MERGE:          0
cpu0->LLC WRITE        ACCESS:      24587 HIT:       3303 MISS:      21284 MSHR_MERGE:          0
cpu0->LLC TRANSLATION  ACCESS:      10484 HIT:         14 MISS:      10470 MSHR_MERGE:          0
cpu0->LLC PREFETCH REQUESTED:          0 ISSUED:          0 USEFUL:          0 USELESS:          0
cpu0->LLC AVERAGE MISS LATENCY: 123.2 cycles

DRAM Statistics

Channel 0 RQ ROW_BUFFER_HIT:        716
  ROW_BUFFER_MISS:     983550
  AVG DBUS CONGESTED CYCLE: 4.362
Channel 0 WQ ROW_BUFFER_HIT:       2696
  ROW_BUFFER_MISS:      21707
  FULL:          0
Channel 0 REFRESHES ISSUED:       3683
