[VMEM] WARNING: physical memory size is smaller than virtual memory size.
WARNING: option --warmup_instructions is deprecated. Use --warmup-instructions instead.
WARNING: option --simulation_instructions is deprecated. Use --simulation-instructions instead.

*** ChampSim Multicore Out-of-Order Simulator ***
Warmup Instructions: 20000000
Simulation Instructions: 40000000
Number of CPUs: 1
Page size: 8192

Off-chip DRAM Size: 16 GiB Channels: 1 Width: 64-bit Data Rate: 3205 MT/s
Heartbeat CPU 0 instructions: 10000000 cycles: 8238725 heartbeat IPC: 1.214 cumulative IPC: 1.214 (Simulation time: 00 hr 02 min 16 sec)
Heartbeat CPU 0 instructions: 20000000 cycles: 15265628 heartbeat IPC: 1.423 cumulative IPC: 1.31 (Simulation time: 00 hr 04 min 21 sec)
Warmup finished CPU 0 instructions: 20000000 cycles: 15265628 cumulative IPC: 1.31 (Simulation time: 00 hr 04 min 21 sec)
Warmup complete CPU 0 instructions: 20000000 cycles: 15265628 cumulative IPC: 1.31 (Simulation time: 00 hr 04 min 21 sec)
Heartbeat CPU 0 instructions: 30000002 cycles: 44277332 heartbeat IPC: 0.3447 cumulative IPC: 0.3447 (Simulation time: 00 hr 09 min 23 sec)
Heartbeat CPU 0 instructions: 40000004 cycles: 73598367 heartbeat IPC: 0.3411 cumulative IPC: 0.3429 (Simulation time: 00 hr 14 min 38 sec)
Heartbeat CPU 0 instructions: 50000004 cycles: 102817388 heartbeat IPC: 0.3422 cumulative IPC: 0.3427 (Simulation time: 00 hr 20 min 12 sec)
Simulation finished CPU 0 instructions: 40000001 cycles: 115104349 cumulative IPC: 0.3475 (Simulation time: 00 hr 25 min 34 sec)
Simulation complete CPU 0 instructions: 40000001 cycles: 115104349 cumulative IPC: 0.3475 (Simulation time: 00 hr 25 min 34 sec)

ChampSim completed all CPUs

=== Simulation ===
CPU 0 runs traces/A2/620.omnetpp_s-874B.champsimtrace.xz

Region of Interest Statistics

CPU 0 cumulative IPC: 0.3475 instructions: 40000001 cycles: 115104349
CPU 0 Branch Prediction Accuracy: 96.17% MPKI: 7.982 Average ROB Occupancy at Mispredict: 59.43
Branch type MPKI
BRANCH_DIRECT_JUMP: 0.9497
BRANCH_INDIRECT: 0.1156
BRANCH_CONDITIONAL: 5.794
BRANCH_DIRECT_CALL: 0.0024
BRANCH_INDIRECT_CALL: 0.7288
BRANCH_RETURN: 0.3916

cpu0->cpu0_STLB TOTAL        ACCESS:     663693 HIT:     552863 MISS:     110830 MSHR_MERGE:          0
cpu0->cpu0_STLB LOAD         ACCESS:     663693 HIT:     552863 MISS:     110830 MSHR_MERGE:          0
cpu0->cpu0_STLB RFO          ACCESS:          0 HIT:          0 MISS:          0 MSHR_MERGE:          0
cpu0->cpu0_STLB PREFETCH     ACCESS:          0 HIT:          0 MISS:          0 MSHR_MERGE:          0
cpu0->cpu0_STLB WRITE        ACCESS:          0 HIT:          0 MISS:          0 MSHR_MERGE:          0
cpu0->cpu0_STLB TRANSLATION  ACCESS:          0 HIT:          0 MISS:          0 MSHR_MERGE:          0
cpu0->cpu0_STLB PREFETCH REQUESTED:          0 ISSUED:          0 USEFUL:          0 USELESS:          0
cpu0->cpu0_STLB AVERAGE MISS LATENCY: 329.4 cycles
cpu0->cpu0_L2C TOTAL        ACCESS:    1524539 HIT:     686768 MISS:     837771 MSHR_MERGE:          5
cpu0->cpu0_L2C LOAD         ACCESS:     749460 HIT:     227943 MISS:     521517 MSHR_MERGE:          1
cpu0->cpu0_L2C RFO          ACCESS:     111347 HIT:      25736 MISS:      85611 MSHR_MERGE:          0
cpu0->cpu0_L2C PREFETCH     ACCESS:      20239 HIT:       9862 MISS:      10377 MSHR_MERGE:          4
cpu0->cpu0_L2C WRITE        ACCESS:     406495 HIT:     404709 MISS:       1786 MSHR_MERGE:          0
cpu0->cpu0_L2C TRANSLATION  ACCESS:     236998 HIT:      18518 MISS:     218480 MSHR_MERGE:          0
cpu0->cpu0_L2C PREFETCH REQUESTED:      20239 ISSUED:      20239 USEFUL:       5972 USELESS:       4315
cpu0->cpu0_L2C AVERAGE MISS LATENCY: 139 cycles
cpu0->cpu0_L1I TOTAL        ACCESS:    6307166 HIT:    6287532 MISS:      19634 MSHR_MERGE:       5240
cpu0->cpu0_L1I LOAD         ACCESS:    6307166 HIT:    6287532 MISS:      19634 MSHR_MERGE:       5240
cpu0->cpu0_L1I RFO          ACCESS:          0 HIT:          0 MISS:          0 MSHR_MERGE:          0
cpu0->cpu0_L1I PREFETCH     ACCESS:          0 HIT:          0 MISS:          0 MSHR_MERGE:          0
cpu0->cpu0_L1I WRITE        ACCESS:          0 HIT:          0 MISS:          0 MSHR_MERGE:          0
cpu0->cpu0_L1I TRANSLATION  ACCESS:          0 HIT:          0 MISS:          0 MSHR_MERGE:          0
cpu0->cpu0_L1I PREFETCH REQUESTED:          0 ISSUED:          0 USEFUL:          0 USELESS:          0
cpu0->cpu0_L1I AVERAGE MISS LATENCY: 27.59 cycles
cpu0->cpu0_L1D TOTAL        ACCESS:   15009118 HIT:   13552886 MISS:    1456232 MSHR_MERGE:     372812
cpu0->cpu0_L1D LOAD         ACCESS:    7537184 HIT:    6631731 MISS:     905453 MSHR_MERGE:     170384
cpu0->cpu0_L1D RFO          ACCESS:          0 HIT:          0 MISS:          0 MSHR_MERGE:          0
cpu0->cpu0_L1D PREFETCH     ACCESS:          0 HIT:          0 MISS:          0 MSHR_MERGE:          0
cpu0->cpu0_L1D WRITE        ACCESS:    7228479 HIT:    6914943 MISS:     313536 MSHR_MERGE:     202183
cpu0->cpu0_L1D TRANSLATION  ACCESS:     243455 HIT:       6212 MISS:     237243 MSHR_MERGE:        245
cpu0->cpu0_L1D PREFETCH REQUESTED:          0 ISSUED:          0 USEFUL:          0 USELESS:          0
cpu0->cpu0_L1D AVERAGE MISS LATENCY: 114.7 cycles
cpu0->cpu0_ITLB TOTAL        ACCESS:    5779769 HIT:    5779739 MISS:         30 MSHR_MERGE:         15
cpu0->cpu0_ITLB LOAD         ACCESS:    5779769 HIT:    5779739 MISS:         30 MSHR_MERGE:         15
cpu0->cpu0_ITLB RFO          ACCESS:          0 HIT:          0 MISS:          0 MSHR_MERGE:          0
cpu0->cpu0_ITLB PREFETCH     ACCESS:          0 HIT:          0 MISS:          0 MSHR_MERGE:          0
cpu0->cpu0_ITLB WRITE        ACCESS:          0 HIT:          0 MISS:          0 MSHR_MERGE:          0
cpu0->cpu0_ITLB TRANSLATION  ACCESS:          0 HIT:          0 MISS:          0 MSHR_MERGE:          0
cpu0->cpu0_ITLB PREFETCH REQUESTED:          0 ISSUED:          0 USEFUL:          0 USELESS:          0
cpu0->cpu0_ITLB AVERAGE MISS LATENCY: 592.7 cycles
cpu0->cpu0_DTLB TOTAL        ACCESS:   13760131 HIT:   12995857 MISS:     764274 MSHR_MERGE:     100595
cpu0->cpu0_DTLB LOAD         ACCESS:   13760131 HIT:   12995857 MISS:     764274 MSHR_MERGE:     100595
cpu0->cpu0_DTLB RFO          ACCESS:          0 HIT:          0 MISS:          0 MSHR_MERGE:          0
cpu0->cpu0_DTLB PREFETCH     ACCESS:          0 HIT:          0 MISS:          0 MSHR_MERGE:          0
cpu0->cpu0_DTLB WRITE        ACCESS:          0 HIT:          0 MISS:          0 MSHR_MERGE:          0
cpu0->cpu0_DTLB TRANSLATION  ACCESS:          0 HIT:          0 MISS:          0 MSHR_MERGE:          0
cpu0->cpu0_DTLB PREFETCH REQUESTED:          0 ISSUED:          0 USEFUL:          0 USELESS:          0
cpu0->cpu0_DTLB AVERAGE MISS LATENCY: 59.16 cycles
cpu0->LLC TOTAL        ACCESS:    1141398 HIT:     260025 MISS:     881373 MSHR_MERGE:          0
cpu0->LLC LOAD         ACCESS:     521516 HIT:      99476 MISS:     422040 MSHR_MERGE:          0
cpu0->LLC RFO          ACCESS:      85611 HIT:      17465 MISS:      68146 MSHR_MERGE:          0
cpu0->LLC PREFETCH     ACCESS:      10373 HIT:        784 MISS:       9589 MSHR_MERGE:          0
cpu0->LLC WRITE        ACCESS:     305418 HIT:      97235 MISS:     208183 MSHR_MERGE:          0
cpu0->LLC TRANSLATION  ACCESS:     218480 HIT:      45065 MISS:     173415 MSHR_MERGE:          0
cpu0->LLC PREFETCH REQUESTED:          0 ISSUED:          0 USEFUL:          0 USELESS:          0
cpu0->LLC AVERAGE MISS LATENCY: 118.2 cycles

DRAM Statistics

Channel 0 RQ ROW_BUFFER_HIT:      11000
  ROW_BUFFER_MISS:     662158
  AVG DBUS CONGESTED CYCLE: 23.66
Channel 0 WQ ROW_BUFFER_HIT:      60998
  ROW_BUFFER_MISS:     166369
  FULL:          0
Channel 0 REFRESHES ISSUED:       9592
