[VMEM] WARNING: physical memory size is smaller than virtual memory size.

*** ChampSim Multicore Out-of-Order Simulator ***
Warmup Instructions: 100000000
Simulation Instructions: 500000000
Number of CPUs: 1
Page size: 4096

Off-chip DRAM Size: 16 GiB Channels: 1 Width: 64-bit Data Rate: 3205 MT/s
Heartbeat CPU 0 instructions: 10000001 cycles: 2804745 heartbeat IPC: 3.565 cumulative IPC: 3.565 (Simulation time: 00 hr 01 min 04 sec)
Heartbeat CPU 0 instructions: 20000001 cycles: 5602129 heartbeat IPC: 3.575 cumulative IPC: 3.57 (Simulation time: 00 hr 02 min 10 sec)
Heartbeat CPU 0 instructions: 30000003 cycles: 8404139 heartbeat IPC: 3.569 cumulative IPC: 3.57 (Simulation time: 00 hr 03 min 21 sec)
Heartbeat CPU 0 instructions: 40000006 cycles: 11200854 heartbeat IPC: 3.576 cumulative IPC: 3.571 (Simulation time: 00 hr 04 min 30 sec)
Heartbeat CPU 0 instructions: 50000006 cycles: 13997140 heartbeat IPC: 3.576 cumulative IPC: 3.572 (Simulation time: 00 hr 05 min 38 sec)
Heartbeat CPU 0 instructions: 60000008 cycles: 16792083 heartbeat IPC: 3.578 cumulative IPC: 3.573 (Simulation time: 00 hr 06 min 54 sec)
Heartbeat CPU 0 instructions: 70000011 cycles: 19589566 heartbeat IPC: 3.575 cumulative IPC: 3.573 (Simulation time: 00 hr 08 min 08 sec)
Heartbeat CPU 0 instructions: 80000014 cycles: 22385873 heartbeat IPC: 3.576 cumulative IPC: 3.574 (Simulation time: 00 hr 09 min 17 sec)
Heartbeat CPU 0 instructions: 90000017 cycles: 25181314 heartbeat IPC: 3.577 cumulative IPC: 3.574 (Simulation time: 00 hr 10 min 31 sec)
Warmup finished CPU 0 instructions: 100000003 cycles: 27977618 cumulative IPC: 3.574 (Simulation time: 00 hr 11 min 48 sec)
Warmup complete CPU 0 instructions: 100000003 cycles: 27977618 cumulative IPC: 3.574 (Simulation time: 00 hr 11 min 48 sec)
Heartbeat CPU 0 instructions: 100000018 cycles: 27977621 heartbeat IPC: 3.576 cumulative IPC: 5 (Simulation time: 00 hr 11 min 48 sec)
Heartbeat CPU 0 instructions: 110000018 cycles: 39352448 heartbeat IPC: 0.8791 cumulative IPC: 0.8791 (Simulation time: 00 hr 14 min 58 sec)
Heartbeat CPU 0 instructions: 120000018 cycles: 50741237 heartbeat IPC: 0.8781 cumulative IPC: 0.8786 (Simulation time: 00 hr 17 min 42 sec)
Heartbeat CPU 0 instructions: 130000019 cycles: 62098240 heartbeat IPC: 0.8805 cumulative IPC: 0.8792 (Simulation time: 00 hr 20 min 17 sec)
Heartbeat CPU 0 instructions: 140000020 cycles: 73420240 heartbeat IPC: 0.8832 cumulative IPC: 0.8802 (Simulation time: 00 hr 22 min 59 sec)
Heartbeat CPU 0 instructions: 150000023 cycles: 84701077 heartbeat IPC: 0.8865 cumulative IPC: 0.8815 (Simulation time: 00 hr 25 min 37 sec)
Heartbeat CPU 0 instructions: 160000024 cycles: 95969192 heartbeat IPC: 0.8875 cumulative IPC: 0.8825 (Simulation time: 00 hr 28 min 10 sec)
Heartbeat CPU 0 instructions: 170000025 cycles: 107285171 heartbeat IPC: 0.8837 cumulative IPC: 0.8826 (Simulation time: 00 hr 30 min 50 sec)
Heartbeat CPU 0 instructions: 180000025 cycles: 118714275 heartbeat IPC: 0.875 cumulative IPC: 0.8817 (Simulation time: 00 hr 33 min 32 sec)
Heartbeat CPU 0 instructions: 190000026 cycles: 129942195 heartbeat IPC: 0.8906 cumulative IPC: 0.8827 (Simulation time: 00 hr 36 min 15 sec)
Heartbeat CPU 0 instructions: 200000029 cycles: 141267478 heartbeat IPC: 0.883 cumulative IPC: 0.8827 (Simulation time: 00 hr 39 min 10 sec)
Heartbeat CPU 0 instructions: 210000029 cycles: 152549266 heartbeat IPC: 0.8864 cumulative IPC: 0.883 (Simulation time: 00 hr 41 min 48 sec)
Heartbeat CPU 0 instructions: 220000031 cycles: 163885971 heartbeat IPC: 0.8821 cumulative IPC: 0.8829 (Simulation time: 00 hr 44 min 33 sec)
Heartbeat CPU 0 instructions: 230000033 cycles: 175216432 heartbeat IPC: 0.8826 cumulative IPC: 0.8829 (Simulation time: 00 hr 47 min 16 sec)
Heartbeat CPU 0 instructions: 240000034 cycles: 186591571 heartbeat IPC: 0.8791 cumulative IPC: 0.8826 (Simulation time: 00 hr 49 min 54 sec)
Heartbeat CPU 0 instructions: 250000035 cycles: 197977422 heartbeat IPC: 0.8783 cumulative IPC: 0.8824 (Simulation time: 00 hr 52 min 34 sec)
Heartbeat CPU 0 instructions: 260000036 cycles: 209329798 heartbeat IPC: 0.8809 cumulative IPC: 0.8823 (Simulation time: 00 hr 55 min 44 sec)
Heartbeat CPU 0 instructions: 270000039 cycles: 220783456 heartbeat IPC: 0.8731 cumulative IPC: 0.8817 (Simulation time: 00 hr 58 min 27 sec)
Heartbeat CPU 0 instructions: 280000043 cycles: 232040027 heartbeat IPC: 0.8884 cumulative IPC: 0.8821 (Simulation time: 01 hr 01 min 10 sec)
Heartbeat CPU 0 instructions: 290000045 cycles: 243354731 heartbeat IPC: 0.8838 cumulative IPC: 0.8822 (Simulation time: 01 hr 03 min 52 sec)
Heartbeat CPU 0 instructions: 300000046 cycles: 254667347 heartbeat IPC: 0.884 cumulative IPC: 0.8823 (Simulation time: 01 hr 06 min 40 sec)
Heartbeat CPU 0 instructions: 310000048 cycles: 265918952 heartbeat IPC: 0.8888 cumulative IPC: 0.8826 (Simulation time: 01 hr 09 min 29 sec)
Heartbeat CPU 0 instructions: 320000049 cycles: 277191719 heartbeat IPC: 0.8871 cumulative IPC: 0.8828 (Simulation time: 01 hr 12 min 16 sec)
Heartbeat CPU 0 instructions: 330000053 cycles: 288598654 heartbeat IPC: 0.8767 cumulative IPC: 0.8825 (Simulation time: 01 hr 14 min 58 sec)
Heartbeat CPU 0 instructions: 340000056 cycles: 299951442 heartbeat IPC: 0.8808 cumulative IPC: 0.8824 (Simulation time: 01 hr 17 min 38 sec)
Heartbeat CPU 0 instructions: 350000060 cycles: 311242868 heartbeat IPC: 0.8856 cumulative IPC: 0.8826 (Simulation time: 01 hr 20 min 27 sec)
Heartbeat CPU 0 instructions: 360000060 cycles: 322491880 heartbeat IPC: 0.889 cumulative IPC: 0.8828 (Simulation time: 01 hr 23 min 18 sec)
Heartbeat CPU 0 instructions: 370000061 cycles: 333743720 heartbeat IPC: 0.8887 cumulative IPC: 0.883 (Simulation time: 01 hr 25 min 59 sec)
Heartbeat CPU 0 instructions: 380000065 cycles: 345070670 heartbeat IPC: 0.8829 cumulative IPC: 0.883 (Simulation time: 01 hr 28 min 35 sec)
Heartbeat CPU 0 instructions: 390000067 cycles: 356354550 heartbeat IPC: 0.8862 cumulative IPC: 0.8831 (Simulation time: 01 hr 31 min 14 sec)
Heartbeat CPU 0 instructions: 400000069 cycles: 367739114 heartbeat IPC: 0.8784 cumulative IPC: 0.883 (Simulation time: 01 hr 34 min 05 sec)
Heartbeat CPU 0 instructions: 410000070 cycles: 378955902 heartbeat IPC: 0.8915 cumulative IPC: 0.8832 (Simulation time: 01 hr 36 min 49 sec)
Heartbeat CPU 0 instructions: 420000071 cycles: 390289984 heartbeat IPC: 0.8823 cumulative IPC: 0.8832 (Simulation time: 01 hr 39 min 34 sec)
Heartbeat CPU 0 instructions: 430000071 cycles: 401597333 heartbeat IPC: 0.8844 cumulative IPC: 0.8833 (Simulation time: 01 hr 42 min 22 sec)
Heartbeat CPU 0 instructions: 440000073 cycles: 413084640 heartbeat IPC: 0.8705 cumulative IPC: 0.8829 (Simulation time: 01 hr 45 min 06 sec)
Heartbeat CPU 0 instructions: 450000076 cycles: 424431590 heartbeat IPC: 0.8813 cumulative IPC: 0.8828 (Simulation time: 01 hr 47 min 58 sec)
Heartbeat CPU 0 instructions: 460000077 cycles: 435666234 heartbeat IPC: 0.8901 cumulative IPC: 0.883 (Simulation time: 01 hr 50 min 50 sec)
Heartbeat CPU 0 instructions: 470000078 cycles: 446971956 heartbeat IPC: 0.8845 cumulative IPC: 0.8831 (Simulation time: 01 hr 53 min 47 sec)
Heartbeat CPU 0 instructions: 480000079 cycles: 458264187 heartbeat IPC: 0.8856 cumulative IPC: 0.8831 (Simulation time: 01 hr 56 min 40 sec)
Heartbeat CPU 0 instructions: 490000080 cycles: 469596823 heartbeat IPC: 0.8824 cumulative IPC: 0.8831 (Simulation time: 01 hr 59 min 33 sec)
Heartbeat CPU 0 instructions: 500000081 cycles: 480928589 heartbeat IPC: 0.8825 cumulative IPC: 0.8831 (Simulation time: 02 hr 02 min 32 sec)
Heartbeat CPU 0 instructions: 510000082 cycles: 492210790 heartbeat IPC: 0.8864 cumulative IPC: 0.8832 (Simulation time: 02 hr 05 min 23 sec)
Heartbeat CPU 0 instructions: 520000086 cycles: 503522926 heartbeat IPC: 0.884 cumulative IPC: 0.8832 (Simulation time: 02 hr 08 min 12 sec)
Heartbeat CPU 0 instructions: 530000088 cycles: 514837370 heartbeat IPC: 0.8838 cumulative IPC: 0.8832 (Simulation time: 02 hr 10 min 59 sec)
Heartbeat CPU 0 instructions: 540000090 cycles: 526131247 heartbeat IPC: 0.8854 cumulative IPC: 0.8833 (Simulation time: 02 hr 13 min 37 sec)
Heartbeat CPU 0 instructions: 550000093 cycles: 537410904 heartbeat IPC: 0.8866 cumulative IPC: 0.8833 (Simulation time: 02 hr 16 min 09 sec)
Heartbeat CPU 0 instructions: 560000093 cycles: 548849556 heartbeat IPC: 0.8742 cumulative IPC: 0.8831 (Simulation time: 02 hr 18 min 46 sec)
Heartbeat CPU 0 instructions: 570000097 cycles: 560261735 heartbeat IPC: 0.8763 cumulative IPC: 0.883 (Simulation time: 02 hr 21 min 25 sec)
Heartbeat CPU 0 instructions: 580000097 cycles: 571653607 heartbeat IPC: 0.8778 cumulative IPC: 0.8829 (Simulation time: 02 hr 23 min 43 sec)
Heartbeat CPU 0 instructions: 590000100 cycles: 582948915 heartbeat IPC: 0.8853 cumulative IPC: 0.8829 (Simulation time: 02 hr 26 min 01 sec)
Simulation finished CPU 0 instructions: 500000000 cycles: 566315417 cumulative IPC: 0.8829 (Simulation time: 02 hr 28 min 20 sec)
Simulation complete CPU 0 instructions: 500000000 cycles: 566315417 cumulative IPC: 0.8829 (Simulation time: 02 hr 28 min 20 sec)

ChampSim completed all CPUs

=== Simulation ===
CPU 0 runs traces/T1.xz

Region of Interest Statistics

CPU 0 cumulative IPC: 0.8829 instructions: 500000000 cycles: 566315417
CPU 0 Branch Prediction Accuracy: 80.62% MPKI: 1.636 Average ROB Occupancy at Mispredict: 300.2
Branch type MPKI
BRANCH_DIRECT_JUMP: 0
BRANCH_INDIRECT: 0
BRANCH_CONDITIONAL: 1.636
BRANCH_DIRECT_CALL: 0
BRANCH_INDIRECT_CALL: 0
BRANCH_RETURN: 0

cpu0->cpu0_STLB TOTAL        ACCESS:     859356 HIT:     752849 MISS:     106507 MSHR_MERGE:          0
cpu0->cpu0_STLB LOAD         ACCESS:     859356 HIT:     752849 MISS:     106507 MSHR_MERGE:          0
cpu0->cpu0_STLB RFO          ACCESS:          0 HIT:          0 MISS:          0 MSHR_MERGE:          0
cpu0->cpu0_STLB PREFETCH     ACCESS:          0 HIT:          0 MISS:          0 MSHR_MERGE:          0
cpu0->cpu0_STLB WRITE        ACCESS:          0 HIT:          0 MISS:          0 MSHR_MERGE:          0
cpu0->cpu0_STLB TRANSLATION  ACCESS:          0 HIT:          0 MISS:          0 MSHR_MERGE:          0
cpu0->cpu0_STLB PREFETCH REQUESTED:          0 ISSUED:          0 USEFUL:          0 USELESS:          0
cpu0->cpu0_STLB AVERAGE MISS LATENCY: 692.3 cycles
cpu0->cpu0_L2C TOTAL        ACCESS:   11737164 HIT:    4276012 MISS:    7461152 MSHR_MERGE:          0
cpu0->cpu0_L2C LOAD         ACCESS:    5189314 HIT:     828035 MISS:    4361279 MSHR_MERGE:          0
cpu0->cpu0_L2C RFO          ACCESS:    3148403 HIT:     171485 MISS:    2976918 MSHR_MERGE:          0
cpu0->cpu0_L2C PREFETCH     ACCESS:          0 HIT:          0 MISS:          0 MSHR_MERGE:          0
cpu0->cpu0_L2C WRITE        ACCESS:    3186877 HIT:    3186729 MISS:        148 MSHR_MERGE:          0
cpu0->cpu0_L2C TRANSLATION  ACCESS:     212570 HIT:      89763 MISS:     122807 MSHR_MERGE:          0
cpu0->cpu0_L2C PREFETCH REQUESTED:          0 ISSUED:          0 USEFUL:          0 USELESS:          0
cpu0->cpu0_L2C AVERAGE MISS LATENCY: 226.8 cycles
cpu0->cpu0_L1I TOTAL        ACCESS:   56682070 HIT:   56682070 MISS:          0 MSHR_MERGE:          0
cpu0->cpu0_L1I LOAD         ACCESS:   56682070 HIT:   56682070 MISS:          0 MSHR_MERGE:          0
cpu0->cpu0_L1I RFO          ACCESS:          0 HIT:          0 MISS:          0 MSHR_MERGE:          0
cpu0->cpu0_L1I PREFETCH     ACCESS:          0 HIT:          0 MISS:          0 MSHR_MERGE:          0
cpu0->cpu0_L1I WRITE        ACCESS:          0 HIT:          0 MISS:          0 MSHR_MERGE:          0
cpu0->cpu0_L1I TRANSLATION  ACCESS:          0 HIT:          0 MISS:          0 MSHR_MERGE:          0
cpu0->cpu0_L1I PREFETCH REQUESTED:          0 ISSUED:          0 USEFUL:          0 USELESS:          0
cpu0->cpu0_L1I AVERAGE MISS LATENCY: - cycles
cpu0->cpu0_L1D TOTAL        ACCESS:  165372734 HIT:  149105740 MISS:   16266994 MSHR_MERGE:    7713949
cpu0->cpu0_L1D LOAD         ACCESS:   73705616 HIT:   68468851 MISS:    5236765 MSHR_MERGE:      47426
cpu0->cpu0_L1D RFO          ACCESS:          0 HIT:          0 MISS:          0 MSHR_MERGE:          0
cpu0->cpu0_L1D PREFETCH     ACCESS:          0 HIT:          0 MISS:          0 MSHR_MERGE:          0
cpu0->cpu0_L1D WRITE        ACCESS:   91453850 HIT:   80636213 MISS:   10817637 MSHR_MERGE:    7666501
cpu0->cpu0_L1D TRANSLATION  ACCESS:     213268 HIT:        676 MISS:     212592 MSHR_MERGE:         22
cpu0->cpu0_L1D PREFETCH REQUESTED:          0 ISSUED:          0 USEFUL:          0 USELESS:          0
cpu0->cpu0_L1D AVERAGE MISS LATENCY: 206.8 cycles
cpu0->cpu0_ITLB TOTAL        ACCESS:   45303371 HIT:   45303371 MISS:          0 MSHR_MERGE:          0
cpu0->cpu0_ITLB LOAD         ACCESS:   45303371 HIT:   45303371 MISS:          0 MSHR_MERGE:          0
cpu0->cpu0_ITLB RFO          ACCESS:          0 HIT:          0 MISS:          0 MSHR_MERGE:          0
cpu0->cpu0_ITLB PREFETCH     ACCESS:          0 HIT:          0 MISS:          0 MSHR_MERGE:          0
cpu0->cpu0_ITLB WRITE        ACCESS:          0 HIT:          0 MISS:          0 MSHR_MERGE:          0
cpu0->cpu0_ITLB TRANSLATION  ACCESS:          0 HIT:          0 MISS:          0 MSHR_MERGE:          0
cpu0->cpu0_ITLB PREFETCH REQUESTED:          0 ISSUED:          0 USEFUL:          0 USELESS:          0
cpu0->cpu0_ITLB AVERAGE MISS LATENCY: - cycles
cpu0->cpu0_DTLB TOTAL        ACCESS:  151513270 HIT:  150550163 MISS:     963107 MSHR_MERGE:     103751
cpu0->cpu0_DTLB LOAD         ACCESS:  151513270 HIT:  150550163 MISS:     963107 MSHR_MERGE:     103751
cpu0->cpu0_DTLB RFO          ACCESS:          0 HIT:          0 MISS:          0 MSHR_MERGE:          0
cpu0->cpu0_DTLB PREFETCH     ACCESS:          0 HIT:          0 MISS:          0 MSHR_MERGE:          0
cpu0->cpu0_DTLB WRITE        ACCESS:          0 HIT:          0 MISS:          0 MSHR_MERGE:          0
cpu0->cpu0_DTLB TRANSLATION  ACCESS:          0 HIT:          0 MISS:          0 MSHR_MERGE:          0
cpu0->cpu0_DTLB PREFETCH REQUESTED:          0 ISSUED:          0 USEFUL:          0 USELESS:          0
cpu0->cpu0_DTLB AVERAGE MISS LATENCY: 90.94 cycles
cpu0->LLC TOTAL        ACCESS:   10438371 HIT:    3248709 MISS:    7189662 MSHR_MERGE:          0
cpu0->LLC LOAD         ACCESS:    4361279 HIT:     433106 MISS:    3928173 MSHR_MERGE:          0
cpu0->LLC RFO          ACCESS:    2976918 HIT:          0 MISS:    2976918 MSHR_MERGE:          0
cpu0->LLC PREFETCH     ACCESS:          0 HIT:          0 MISS:          0 MSHR_MERGE:          0
cpu0->LLC WRITE        ACCESS:    2977367 HIT:    2815580 MISS:     161787 MSHR_MERGE:          0
cpu0->LLC TRANSLATION  ACCESS:     122807 HIT:         23 MISS:     122784 MSHR_MERGE:          0
cpu0->LLC PREFETCH REQUESTED:          0 ISSUED:          0 USEFUL:          0 USELESS:          0
cpu0->LLC AVERAGE MISS LATENCY: 219 cycles

DRAM Statistics

Channel 0 RQ ROW_BUFFER_HIT:        366
  ROW_BUFFER_MISS:    7027509
  AVG DBUS CONGESTED CYCLE: 11.33
Channel 0 WQ ROW_BUFFER_HIT:    1045412
  ROW_BUFFER_MISS:    1931533
  FULL:          0
Channel 0 REFRESHES ISSUED:      47193
ADAPTIVE LLC final_psel: 0 (midpoint=512) → followers_use: SRRIP
ADAPTIVE LLC srrip_leader_misses: 129619 mru_leader_misses: 196009
ADAPTIVE LLC follower_srrip_fills: 8304109 follower_mru_fills: 18491
ADAPTIVE LLC total_evictions: 8615460
