[VMEM] WARNING: physical memory size is smaller than virtual memory size.

*** ChampSim Multicore Out-of-Order Simulator ***
Warmup Instructions: 100000000
Simulation Instructions: 500000000
Number of CPUs: 1
Page size: 4096

Off-chip DRAM Size: 16 GiB Channels: 1 Width: 64-bit Data Rate: 3205 MT/s
Heartbeat CPU 0 instructions: 10000000 cycles: 2973829 heartbeat IPC: 3.363 cumulative IPC: 3.363 (Simulation time: 00 hr 01 min 00 sec)
Heartbeat CPU 0 instructions: 20000000 cycles: 5933608 heartbeat IPC: 3.379 cumulative IPC: 3.371 (Simulation time: 00 hr 02 min 00 sec)
Heartbeat CPU 0 instructions: 30000002 cycles: 8893979 heartbeat IPC: 3.378 cumulative IPC: 3.373 (Simulation time: 00 hr 03 min 02 sec)
Heartbeat CPU 0 instructions: 40000004 cycles: 11853085 heartbeat IPC: 3.379 cumulative IPC: 3.375 (Simulation time: 00 hr 04 min 11 sec)
Heartbeat CPU 0 instructions: 50000004 cycles: 14813434 heartbeat IPC: 3.378 cumulative IPC: 3.375 (Simulation time: 00 hr 05 min 13 sec)
Heartbeat CPU 0 instructions: 60000007 cycles: 17772761 heartbeat IPC: 3.379 cumulative IPC: 3.376 (Simulation time: 00 hr 06 min 20 sec)
Heartbeat CPU 0 instructions: 70000007 cycles: 20732058 heartbeat IPC: 3.379 cumulative IPC: 3.376 (Simulation time: 00 hr 07 min 30 sec)
Heartbeat CPU 0 instructions: 80000010 cycles: 23692660 heartbeat IPC: 3.378 cumulative IPC: 3.377 (Simulation time: 00 hr 08 min 34 sec)
Heartbeat CPU 0 instructions: 90000012 cycles: 26652109 heartbeat IPC: 3.379 cumulative IPC: 3.377 (Simulation time: 00 hr 09 min 38 sec)
Warmup finished CPU 0 instructions: 100000000 cycles: 29611404 cumulative IPC: 3.377 (Simulation time: 00 hr 10 min 47 sec)
Warmup complete CPU 0 instructions: 100000000 cycles: 29611404 cumulative IPC: 3.377 (Simulation time: 00 hr 10 min 47 sec)
Heartbeat CPU 0 instructions: 100000015 cycles: 29611407 heartbeat IPC: 3.379 cumulative IPC: 5 (Simulation time: 00 hr 10 min 47 sec)
Heartbeat CPU 0 instructions: 110000016 cycles: 55173653 heartbeat IPC: 0.3912 cumulative IPC: 0.3912 (Simulation time: 00 hr 17 min 18 sec)
Heartbeat CPU 0 instructions: 120000020 cycles: 80693701 heartbeat IPC: 0.3918 cumulative IPC: 0.3915 (Simulation time: 00 hr 23 min 09 sec)
Heartbeat CPU 0 instructions: 130000020 cycles: 106132605 heartbeat IPC: 0.3931 cumulative IPC: 0.392 (Simulation time: 00 hr 28 min 54 sec)
Heartbeat CPU 0 instructions: 140000024 cycles: 131577235 heartbeat IPC: 0.393 cumulative IPC: 0.3923 (Simulation time: 00 hr 34 min 49 sec)
Heartbeat CPU 0 instructions: 150000024 cycles: 157146852 heartbeat IPC: 0.3911 cumulative IPC: 0.392 (Simulation time: 00 hr 40 min 56 sec)
Heartbeat CPU 0 instructions: 160000028 cycles: 182750177 heartbeat IPC: 0.3906 cumulative IPC: 0.3918 (Simulation time: 00 hr 46 min 57 sec)
Heartbeat CPU 0 instructions: 170000028 cycles: 208283777 heartbeat IPC: 0.3916 cumulative IPC: 0.3918 (Simulation time: 00 hr 52 min 48 sec)
Heartbeat CPU 0 instructions: 180000031 cycles: 233833076 heartbeat IPC: 0.3914 cumulative IPC: 0.3917 (Simulation time: 00 hr 59 min 13 sec)
Heartbeat CPU 0 instructions: 190000034 cycles: 259342418 heartbeat IPC: 0.392 cumulative IPC: 0.3918 (Simulation time: 01 hr 05 min 16 sec)
Heartbeat CPU 0 instructions: 200000035 cycles: 284888263 heartbeat IPC: 0.3915 cumulative IPC: 0.3917 (Simulation time: 01 hr 11 min 26 sec)
Heartbeat CPU 0 instructions: 210000038 cycles: 310368145 heartbeat IPC: 0.3925 cumulative IPC: 0.3918 (Simulation time: 01 hr 17 min 22 sec)
Heartbeat CPU 0 instructions: 220000038 cycles: 335901575 heartbeat IPC: 0.3916 cumulative IPC: 0.3918 (Simulation time: 01 hr 23 min 34 sec)
Heartbeat CPU 0 instructions: 230000038 cycles: 361429407 heartbeat IPC: 0.3917 cumulative IPC: 0.3918 (Simulation time: 01 hr 29 min 22 sec)
Heartbeat CPU 0 instructions: 240000042 cycles: 386981779 heartbeat IPC: 0.3914 cumulative IPC: 0.3918 (Simulation time: 01 hr 35 min 27 sec)
Heartbeat CPU 0 instructions: 250000042 cycles: 412490281 heartbeat IPC: 0.392 cumulative IPC: 0.3918 (Simulation time: 01 hr 41 min 30 sec)
Heartbeat CPU 0 instructions: 260000046 cycles: 438018051 heartbeat IPC: 0.3917 cumulative IPC: 0.3918 (Simulation time: 01 hr 47 min 37 sec)
Heartbeat CPU 0 instructions: 270000046 cycles: 460941185 heartbeat IPC: 0.4362 cumulative IPC: 0.3941 (Simulation time: 01 hr 53 min 18 sec)
Heartbeat CPU 0 instructions: 280000047 cycles: 482134012 heartbeat IPC: 0.4719 cumulative IPC: 0.3978 (Simulation time: 01 hr 58 min 31 sec)
Heartbeat CPU 0 instructions: 290000048 cycles: 507745102 heartbeat IPC: 0.3905 cumulative IPC: 0.3974 (Simulation time: 02 hr 04 min 53 sec)
Heartbeat CPU 0 instructions: 300000052 cycles: 533365372 heartbeat IPC: 0.3903 cumulative IPC: 0.397 (Simulation time: 02 hr 11 min 03 sec)
Heartbeat CPU 0 instructions: 310000052 cycles: 558936964 heartbeat IPC: 0.3911 cumulative IPC: 0.3967 (Simulation time: 02 hr 16 min 43 sec)
Heartbeat CPU 0 instructions: 320000056 cycles: 584501709 heartbeat IPC: 0.3912 cumulative IPC: 0.3965 (Simulation time: 02 hr 22 min 19 sec)
Heartbeat CPU 0 instructions: 330000056 cycles: 610218579 heartbeat IPC: 0.3888 cumulative IPC: 0.3961 (Simulation time: 02 hr 27 min 26 sec)
Heartbeat CPU 0 instructions: 340000060 cycles: 635927154 heartbeat IPC: 0.389 cumulative IPC: 0.3958 (Simulation time: 02 hr 32 min 03 sec)
Heartbeat CPU 0 instructions: 350000064 cycles: 661525902 heartbeat IPC: 0.3906 cumulative IPC: 0.3956 (Simulation time: 02 hr 36 min 28 sec)
Heartbeat CPU 0 instructions: 360000067 cycles: 687208082 heartbeat IPC: 0.3894 cumulative IPC: 0.3954 (Simulation time: 02 hr 40 min 58 sec)
Heartbeat CPU 0 instructions: 370000068 cycles: 712802206 heartbeat IPC: 0.3907 cumulative IPC: 0.3952 (Simulation time: 02 hr 45 min 24 sec)
Heartbeat CPU 0 instructions: 380000070 cycles: 738381006 heartbeat IPC: 0.3909 cumulative IPC: 0.3951 (Simulation time: 02 hr 49 min 54 sec)
Heartbeat CPU 0 instructions: 390000072 cycles: 764005156 heartbeat IPC: 0.3903 cumulative IPC: 0.3949 (Simulation time: 02 hr 54 min 24 sec)
Heartbeat CPU 0 instructions: 400000075 cycles: 789566332 heartbeat IPC: 0.3912 cumulative IPC: 0.3948 (Simulation time: 02 hr 58 min 50 sec)
Heartbeat CPU 0 instructions: 410000075 cycles: 815242532 heartbeat IPC: 0.3895 cumulative IPC: 0.3946 (Simulation time: 03 hr 03 min 17 sec)
Heartbeat CPU 0 instructions: 420000079 cycles: 840729242 heartbeat IPC: 0.3924 cumulative IPC: 0.3945 (Simulation time: 03 hr 07 min 39 sec)
Heartbeat CPU 0 instructions: 430000079 cycles: 866362426 heartbeat IPC: 0.3901 cumulative IPC: 0.3944 (Simulation time: 03 hr 12 min 36 sec)
Heartbeat CPU 0 instructions: 440000083 cycles: 891987616 heartbeat IPC: 0.3902 cumulative IPC: 0.3943 (Simulation time: 03 hr 17 min 23 sec)
Heartbeat CPU 0 instructions: 450000084 cycles: 917620672 heartbeat IPC: 0.3901 cumulative IPC: 0.3941 (Simulation time: 03 hr 22 min 32 sec)
Heartbeat CPU 0 instructions: 460000085 cycles: 943202851 heartbeat IPC: 0.3909 cumulative IPC: 0.394 (Simulation time: 03 hr 27 min 34 sec)
Heartbeat CPU 0 instructions: 470000086 cycles: 968816878 heartbeat IPC: 0.3904 cumulative IPC: 0.394 (Simulation time: 03 hr 32 min 20 sec)
Heartbeat CPU 0 instructions: 480000089 cycles: 994398478 heartbeat IPC: 0.3909 cumulative IPC: 0.3939 (Simulation time: 03 hr 37 min 11 sec)
Heartbeat CPU 0 instructions: 490000090 cycles: 1019921745 heartbeat IPC: 0.3918 cumulative IPC: 0.3938 (Simulation time: 03 hr 41 min 11 sec)
Heartbeat CPU 0 instructions: 500000094 cycles: 1045484045 heartbeat IPC: 0.3912 cumulative IPC: 0.3938 (Simulation time: 03 hr 45 min 21 sec)
Heartbeat CPU 0 instructions: 510000098 cycles: 1071088994 heartbeat IPC: 0.3905 cumulative IPC: 0.3937 (Simulation time: 03 hr 49 min 10 sec)
Heartbeat CPU 0 instructions: 520000102 cycles: 1096597147 heartbeat IPC: 0.392 cumulative IPC: 0.3936 (Simulation time: 03 hr 53 min 15 sec)
Heartbeat CPU 0 instructions: 530000102 cycles: 1122221707 heartbeat IPC: 0.3903 cumulative IPC: 0.3936 (Simulation time: 03 hr 57 min 15 sec)
Heartbeat CPU 0 instructions: 540000106 cycles: 1147823916 heartbeat IPC: 0.3906 cumulative IPC: 0.3935 (Simulation time: 04 hr 01 min 08 sec)
Heartbeat CPU 0 instructions: 550000106 cycles: 1173361264 heartbeat IPC: 0.3916 cumulative IPC: 0.3934 (Simulation time: 04 hr 05 min 05 sec)
Heartbeat CPU 0 instructions: 560000108 cycles: 1198937040 heartbeat IPC: 0.391 cumulative IPC: 0.3934 (Simulation time: 04 hr 09 min 02 sec)
Heartbeat CPU 0 instructions: 570000109 cycles: 1224583933 heartbeat IPC: 0.3899 cumulative IPC: 0.3933 (Simulation time: 04 hr 13 min 38 sec)
Heartbeat CPU 0 instructions: 580000112 cycles: 1250181628 heartbeat IPC: 0.3907 cumulative IPC: 0.3933 (Simulation time: 04 hr 18 min 20 sec)
Heartbeat CPU 0 instructions: 590000113 cycles: 1275934912 heartbeat IPC: 0.3883 cumulative IPC: 0.3932 (Simulation time: 04 hr 23 min 02 sec)
Simulation finished CPU 0 instructions: 500000003 cycles: 1271911568 cumulative IPC: 0.3931 (Simulation time: 04 hr 27 min 37 sec)
Simulation complete CPU 0 instructions: 500000003 cycles: 1271911568 cumulative IPC: 0.3931 (Simulation time: 04 hr 27 min 37 sec)

ChampSim completed all CPUs

=== Simulation ===
CPU 0 runs traces/T4.xz

Region of Interest Statistics

CPU 0 cumulative IPC: 0.3931 instructions: 500000003 cycles: 1271911568
CPU 0 Branch Prediction Accuracy: 99.63% MPKI: 0.06786 Average ROB Occupancy at Mispredict: 76.51
Branch type MPKI
BRANCH_DIRECT_JUMP: 0.000178
BRANCH_INDIRECT: 0
BRANCH_CONDITIONAL: 0.05161
BRANCH_DIRECT_CALL: 3.2e-05
BRANCH_INDIRECT_CALL: 0
BRANCH_RETURN: 0.01604

cpu0->cpu0_STLB TOTAL        ACCESS:     116433 HIT:      48247 MISS:      68186 MSHR_MERGE:          0
cpu0->cpu0_STLB LOAD         ACCESS:     116433 HIT:      48247 MISS:      68186 MSHR_MERGE:          0
cpu0->cpu0_STLB RFO          ACCESS:          0 HIT:          0 MISS:          0 MSHR_MERGE:          0
cpu0->cpu0_STLB PREFETCH     ACCESS:          0 HIT:          0 MISS:          0 MSHR_MERGE:          0
cpu0->cpu0_STLB WRITE        ACCESS:          0 HIT:          0 MISS:          0 MSHR_MERGE:          0
cpu0->cpu0_STLB TRANSLATION  ACCESS:          0 HIT:          0 MISS:          0 MSHR_MERGE:          0
cpu0->cpu0_STLB PREFETCH REQUESTED:          0 ISSUED:          0 USEFUL:          0 USELESS:          0
cpu0->cpu0_STLB AVERAGE MISS LATENCY: 665.6 cycles
cpu0->cpu0_L2C TOTAL        ACCESS:   11017709 HIT:    6187536 MISS:    4830173 MSHR_MERGE:          0
cpu0->cpu0_L2C LOAD         ACCESS:    6564966 HIT:    1812482 MISS:    4752484 MSHR_MERGE:          0
cpu0->cpu0_L2C RFO          ACCESS:       9630 HIT:       8999 MISS:        631 MSHR_MERGE:          0
cpu0->cpu0_L2C PREFETCH     ACCESS:          0 HIT:          0 MISS:          0 MSHR_MERGE:          0
cpu0->cpu0_L2C WRITE        ACCESS:    4364158 HIT:    4364158 MISS:          0 MSHR_MERGE:          0
cpu0->cpu0_L2C TRANSLATION  ACCESS:      78955 HIT:       1897 MISS:      77058 MSHR_MERGE:          0
cpu0->cpu0_L2C PREFETCH REQUESTED:          0 ISSUED:          0 USEFUL:          0 USELESS:          0
cpu0->cpu0_L2C AVERAGE MISS LATENCY: 222.5 cycles
cpu0->cpu0_L1I TOTAL        ACCESS:   93151016 HIT:   93150609 MISS:        407 MSHR_MERGE:        130
cpu0->cpu0_L1I LOAD         ACCESS:   93151016 HIT:   93150609 MISS:        407 MSHR_MERGE:        130
cpu0->cpu0_L1I RFO          ACCESS:          0 HIT:          0 MISS:          0 MSHR_MERGE:          0
cpu0->cpu0_L1I PREFETCH     ACCESS:          0 HIT:          0 MISS:          0 MSHR_MERGE:          0
cpu0->cpu0_L1I WRITE        ACCESS:          0 HIT:          0 MISS:          0 MSHR_MERGE:          0
cpu0->cpu0_L1I TRANSLATION  ACCESS:          0 HIT:          0 MISS:          0 MSHR_MERGE:          0
cpu0->cpu0_L1I PREFETCH REQUESTED:          0 ISSUED:          0 USEFUL:          0 USELESS:          0
cpu0->cpu0_L1I AVERAGE MISS LATENCY: 223.1 cycles
cpu0->cpu0_L1D TOTAL        ACCESS:  158346704 HIT:  130393911 MISS:   27952793 MSHR_MERGE:   21299519
cpu0->cpu0_L1D LOAD         ACCESS:  123005758 HIT:   95162528 MISS:   27843230 MSHR_MERGE:   21278541
cpu0->cpu0_L1D RFO          ACCESS:          0 HIT:          0 MISS:          0 MSHR_MERGE:          0
cpu0->cpu0_L1D PREFETCH     ACCESS:          0 HIT:          0 MISS:          0 MSHR_MERGE:          0
cpu0->cpu0_L1D WRITE        ACCESS:   35204338 HIT:   35173731 MISS:      30607 MSHR_MERGE:      20977
cpu0->cpu0_L1D TRANSLATION  ACCESS:     136608 HIT:      57652 MISS:      78956 MSHR_MERGE:          1
cpu0->cpu0_L1D PREFETCH REQUESTED:          0 ISSUED:          0 USEFUL:          0 USELESS:          0
cpu0->cpu0_L1D AVERAGE MISS LATENCY: 170.3 cycles
cpu0->cpu0_ITLB TOTAL        ACCESS:   75718410 HIT:   75718385 MISS:         25 MSHR_MERGE:         14
cpu0->cpu0_ITLB LOAD         ACCESS:   75718410 HIT:   75718385 MISS:         25 MSHR_MERGE:         14
cpu0->cpu0_ITLB RFO          ACCESS:          0 HIT:          0 MISS:          0 MSHR_MERGE:          0
cpu0->cpu0_ITLB PREFETCH     ACCESS:          0 HIT:          0 MISS:          0 MSHR_MERGE:          0
cpu0->cpu0_ITLB WRITE        ACCESS:          0 HIT:          0 MISS:          0 MSHR_MERGE:          0
cpu0->cpu0_ITLB TRANSLATION  ACCESS:          0 HIT:          0 MISS:          0 MSHR_MERGE:          0
cpu0->cpu0_ITLB PREFETCH REQUESTED:          0 ISSUED:          0 USEFUL:          0 USELESS:          0
cpu0->cpu0_ITLB AVERAGE MISS LATENCY: 778.3 cycles
cpu0->cpu0_DTLB TOTAL        ACCESS:  148305423 HIT:  147867405 MISS:     438018 MSHR_MERGE:     321596
cpu0->cpu0_DTLB LOAD         ACCESS:  148305423 HIT:  147867405 MISS:     438018 MSHR_MERGE:     321596
cpu0->cpu0_DTLB RFO          ACCESS:          0 HIT:          0 MISS:          0 MSHR_MERGE:          0
cpu0->cpu0_DTLB PREFETCH     ACCESS:          0 HIT:          0 MISS:          0 MSHR_MERGE:          0
cpu0->cpu0_DTLB WRITE        ACCESS:          0 HIT:          0 MISS:          0 MSHR_MERGE:          0
cpu0->cpu0_DTLB TRANSLATION  ACCESS:          0 HIT:          0 MISS:          0 MSHR_MERGE:          0
cpu0->cpu0_DTLB PREFETCH REQUESTED:          0 ISSUED:          0 USEFUL:          0 USELESS:          0
cpu0->cpu0_DTLB AVERAGE MISS LATENCY: 395.3 cycles
cpu0->LLC TOTAL        ACCESS:    9185179 HIT:    4241423 MISS:    4943756 MSHR_MERGE:          0
cpu0->LLC LOAD         ACCESS:    4752484 HIT:     287717 MISS:    4464767 MSHR_MERGE:          0
cpu0->LLC RFO          ACCESS:        631 HIT:        547 MISS:         84 MSHR_MERGE:          0
cpu0->LLC PREFETCH     ACCESS:          0 HIT:          0 MISS:          0 MSHR_MERGE:          0
cpu0->LLC WRITE        ACCESS:    4355006 HIT:    3953145 MISS:     401861 MSHR_MERGE:          0
cpu0->LLC TRANSLATION  ACCESS:      77058 HIT:         14 MISS:      77044 MSHR_MERGE:          0
cpu0->LLC PREFETCH REQUESTED:          0 ISSUED:          0 USEFUL:          0 USELESS:          0
cpu0->LLC AVERAGE MISS LATENCY: 202.6 cycles

DRAM Statistics

Channel 0 RQ ROW_BUFFER_HIT:      42254
  ROW_BUFFER_MISS:    4499622
  AVG DBUS CONGESTED CYCLE: 9.211
Channel 0 WQ ROW_BUFFER_HIT:    1688052
  ROW_BUFFER_MISS:    2666005
  FULL:          0
Channel 0 REFRESHES ISSUED:     105993
ADAPTIVE LLC final_psel: 0 (midpoint=512) → followers_use: SRRIP
ADAPTIVE LLC srrip_leader_misses: 83530 mru_leader_misses: 171905
ADAPTIVE LLC follower_srrip_fills: 5672973 follower_mru_fills: 18018
ADAPTIVE LLC total_evictions: 5913658
