[VMEM] WARNING: physical memory size is smaller than virtual memory size.
WARNING: option --warmup_instructions is deprecated. Use --warmup-instructions instead.
WARNING: option --simulation_instructions is deprecated. Use --simulation-instructions instead.

*** ChampSim Multicore Out-of-Order Simulator ***
Warmup Instructions: 20000000
Simulation Instructions: 50000000
Number of CPUs: 1
Page size: 8192

Off-chip DRAM Size: 16 GiB Channels: 1 Width: 64-bit Data Rate: 3205 MT/s
Heartbeat CPU 0 instructions: 10000000 cycles: 8646831 heartbeat IPC: 1.156 cumulative IPC: 1.156 (Simulation time: 00 hr 01 min 07 sec)
Heartbeat CPU 0 instructions: 20000001 cycles: 13645456 heartbeat IPC: 2.001 cumulative IPC: 1.466 (Simulation time: 00 hr 01 min 57 sec)
Warmup finished CPU 0 instructions: 20000001 cycles: 13645456 cumulative IPC: 1.466 (Simulation time: 00 hr 01 min 57 sec)
Warmup complete CPU 0 instructions: 20000001 cycles: 13645456 cumulative IPC: 1.466 (Simulation time: 00 hr 01 min 57 sec)
Heartbeat CPU 0 instructions: 30000003 cycles: 64447817 heartbeat IPC: 0.1968 cumulative IPC: 0.1968 (Simulation time: 00 hr 06 min 06 sec)
Heartbeat CPU 0 instructions: 40000005 cycles: 115716976 heartbeat IPC: 0.195 cumulative IPC: 0.1959 (Simulation time: 00 hr 10 min 22 sec)
Heartbeat CPU 0 instructions: 50000006 cycles: 167143725 heartbeat IPC: 0.1945 cumulative IPC: 0.1954 (Simulation time: 00 hr 14 min 40 sec)
Heartbeat CPU 0 instructions: 60000007 cycles: 218043160 heartbeat IPC: 0.1965 cumulative IPC: 0.1957 (Simulation time: 00 hr 18 min 56 sec)
Simulation finished CPU 0 instructions: 50000002 cycles: 254034668 cumulative IPC: 0.1968 (Simulation time: 00 hr 23 min 07 sec)
Simulation complete CPU 0 instructions: 50000002 cycles: 254034668 cumulative IPC: 0.1968 (Simulation time: 00 hr 23 min 07 sec)

ChampSim completed all CPUs

=== Simulation ===
CPU 0 runs traces/473.astar-359B.champsimtrace.xz

Region of Interest Statistics

CPU 0 cumulative IPC: 0.1968 instructions: 50000002 cycles: 254034668
CPU 0 Branch Prediction Accuracy: 93.2% MPKI: 13.43 Average ROB Occupancy at Mispredict: 41.95
Branch type MPKI
BRANCH_DIRECT_JUMP: 0
BRANCH_INDIRECT: 0
BRANCH_CONDITIONAL: 13.42
BRANCH_DIRECT_CALL: 0
BRANCH_INDIRECT_CALL: 0.00054
BRANCH_RETURN: 0

cpu0->cpu0_STLB TOTAL        ACCESS:    1275696 HIT:     889447 MISS:     386249 MSHR_MERGE:          0
cpu0->cpu0_STLB LOAD         ACCESS:    1275696 HIT:     889447 MISS:     386249 MSHR_MERGE:          0
cpu0->cpu0_STLB RFO          ACCESS:          0 HIT:          0 MISS:          0 MSHR_MERGE:          0
cpu0->cpu0_STLB PREFETCH     ACCESS:          0 HIT:          0 MISS:          0 MSHR_MERGE:          0
cpu0->cpu0_STLB WRITE        ACCESS:          0 HIT:          0 MISS:          0 MSHR_MERGE:          0
cpu0->cpu0_STLB TRANSLATION  ACCESS:          0 HIT:          0 MISS:          0 MSHR_MERGE:          0
cpu0->cpu0_STLB PREFETCH REQUESTED:          0 ISSUED:          0 USEFUL:          0 USELESS:          0
cpu0->cpu0_STLB AVERAGE MISS LATENCY: 512.8 cycles
cpu0->cpu0_L2C TOTAL        ACCESS:    4361449 HIT:    1955467 MISS:    2405982 MSHR_MERGE:          0
cpu0->cpu0_L2C LOAD         ACCESS:    1775433 HIT:     731507 MISS:    1043926 MSHR_MERGE:          0
cpu0->cpu0_L2C RFO          ACCESS:     767643 HIT:      47192 MISS:     720451 MSHR_MERGE:          0
cpu0->cpu0_L2C PREFETCH     ACCESS:          0 HIT:          0 MISS:          0 MSHR_MERGE:          0
cpu0->cpu0_L2C WRITE        ACCESS:    1168879 HIT:    1168845 MISS:         34 MSHR_MERGE:          0
cpu0->cpu0_L2C TRANSLATION  ACCESS:     649494 HIT:       7923 MISS:     641571 MSHR_MERGE:          0
cpu0->cpu0_L2C PREFETCH REQUESTED:          0 ISSUED:          0 USEFUL:          0 USELESS:          0
cpu0->cpu0_L2C AVERAGE MISS LATENCY: 246.5 cycles
cpu0->cpu0_L1I TOTAL        ACCESS:     976878 HIT:     976871 MISS:          7 MSHR_MERGE:          0
cpu0->cpu0_L1I LOAD         ACCESS:     976878 HIT:     976871 MISS:          7 MSHR_MERGE:          0
cpu0->cpu0_L1I RFO          ACCESS:          0 HIT:          0 MISS:          0 MSHR_MERGE:          0
cpu0->cpu0_L1I PREFETCH     ACCESS:          0 HIT:          0 MISS:          0 MSHR_MERGE:          0
cpu0->cpu0_L1I WRITE        ACCESS:          0 HIT:          0 MISS:          0 MSHR_MERGE:          0
cpu0->cpu0_L1I TRANSLATION  ACCESS:          0 HIT:          0 MISS:          0 MSHR_MERGE:          0
cpu0->cpu0_L1I PREFETCH REQUESTED:          0 ISSUED:          0 USEFUL:          0 USELESS:          0
cpu0->cpu0_L1I AVERAGE MISS LATENCY: 177.9 cycles
cpu0->cpu0_L1D TOTAL        ACCESS:   19896026 HIT:   15898311 MISS:    3997715 MSHR_MERGE:     805150
cpu0->cpu0_L1D LOAD         ACCESS:   12806085 HIT:   10313663 MISS:    2492422 MSHR_MERGE:     716994
cpu0->cpu0_L1D RFO          ACCESS:          0 HIT:          0 MISS:          0 MSHR_MERGE:          0
cpu0->cpu0_L1D PREFETCH     ACCESS:          0 HIT:          0 MISS:          0 MSHR_MERGE:          0
cpu0->cpu0_L1D WRITE        ACCESS:    6314915 HIT:    5547197 MISS:     767718 MSHR_MERGE:         75
cpu0->cpu0_L1D TRANSLATION  ACCESS:     775026 HIT:      37451 MISS:     737575 MSHR_MERGE:      88081
cpu0->cpu0_L1D PREFETCH REQUESTED:          0 ISSUED:          0 USEFUL:          0 USELESS:          0
cpu0->cpu0_L1D AVERAGE MISS LATENCY: 194.6 cycles
cpu0->cpu0_ITLB TOTAL        ACCESS:     952755 HIT:     952755 MISS:          0 MSHR_MERGE:          0
cpu0->cpu0_ITLB LOAD         ACCESS:     952755 HIT:     952755 MISS:          0 MSHR_MERGE:          0
cpu0->cpu0_ITLB RFO          ACCESS:          0 HIT:          0 MISS:          0 MSHR_MERGE:          0
cpu0->cpu0_ITLB PREFETCH     ACCESS:          0 HIT:          0 MISS:          0 MSHR_MERGE:          0
cpu0->cpu0_ITLB WRITE        ACCESS:          0 HIT:          0 MISS:          0 MSHR_MERGE:          0
cpu0->cpu0_ITLB TRANSLATION  ACCESS:          0 HIT:          0 MISS:          0 MSHR_MERGE:          0
cpu0->cpu0_ITLB PREFETCH REQUESTED:          0 ISSUED:          0 USEFUL:          0 USELESS:          0
cpu0->cpu0_ITLB AVERAGE MISS LATENCY: - cycles
cpu0->cpu0_DTLB TOTAL        ACCESS:   18170417 HIT:   16305759 MISS:    1864658 MSHR_MERGE:     588962
cpu0->cpu0_DTLB LOAD         ACCESS:   18170417 HIT:   16305759 MISS:    1864658 MSHR_MERGE:     588962
cpu0->cpu0_DTLB RFO          ACCESS:          0 HIT:          0 MISS:          0 MSHR_MERGE:          0
cpu0->cpu0_DTLB PREFETCH     ACCESS:          0 HIT:          0 MISS:          0 MSHR_MERGE:          0
cpu0->cpu0_DTLB WRITE        ACCESS:          0 HIT:          0 MISS:          0 MSHR_MERGE:          0
cpu0->cpu0_DTLB TRANSLATION  ACCESS:          0 HIT:          0 MISS:          0 MSHR_MERGE:          0
cpu0->cpu0_DTLB PREFETCH REQUESTED:          0 ISSUED:          0 USEFUL:          0 USELESS:          0
cpu0->cpu0_DTLB AVERAGE MISS LATENCY: 159.6 cycles
cpu0->LLC TOTAL        ACCESS:    3526177 HIT:     761149 MISS:    2765028 MSHR_MERGE:          0
cpu0->LLC LOAD         ACCESS:    1043925 HIT:     208118 MISS:     835807 MSHR_MERGE:          0
cpu0->LLC RFO          ACCESS:     720451 HIT:     140746 MISS:     579705 MSHR_MERGE:          0
cpu0->LLC PREFETCH     ACCESS:          0 HIT:          0 MISS:          0 MSHR_MERGE:          0
cpu0->LLC WRITE        ACCESS:    1120230 HIT:     289056 MISS:     831174 MSHR_MERGE:          0
cpu0->LLC TRANSLATION  ACCESS:     641571 HIT:     123229 MISS:     518342 MSHR_MERGE:          0
cpu0->LLC PREFETCH REQUESTED:          0 ISSUED:          0 USEFUL:          0 USELESS:          0
cpu0->LLC AVERAGE MISS LATENCY: 202.6 cycles

DRAM Statistics

Channel 0 RQ ROW_BUFFER_HIT:      61184
  ROW_BUFFER_MISS:    1872554
  AVG DBUS CONGESTED CYCLE: 20.35
Channel 0 WQ ROW_BUFFER_HIT:     134956
  ROW_BUFFER_MISS:     745449
  FULL:        114
Channel 0 REFRESHES ISSUED:      21169
