[VMEM] WARNING: physical memory size is smaller than virtual memory size.
WARNING: option --warmup_instructions is deprecated. Use --warmup-instructions instead.
WARNING: option --simulation_instructions is deprecated. Use --simulation-instructions instead.

*** ChampSim Multicore Out-of-Order Simulator ***
Warmup Instructions: 20000000
Simulation Instructions: 50000000
Number of CPUs: 1
Page size: 8192

Off-chip DRAM Size: 16 GiB Channels: 1 Width: 64-bit Data Rate: 3205 MT/s
Heartbeat CPU 0 instructions: 10000000 cycles: 4257695 heartbeat IPC: 2.349 cumulative IPC: 2.349 (Simulation time: 00 hr 01 min 41 sec)
Heartbeat CPU 0 instructions: 20000000 cycles: 8506783 heartbeat IPC: 2.353 cumulative IPC: 2.351 (Simulation time: 00 hr 03 min 24 sec)
Warmup finished CPU 0 instructions: 20000000 cycles: 8506783 cumulative IPC: 2.351 (Simulation time: 00 hr 03 min 24 sec)
Warmup complete CPU 0 instructions: 20000000 cycles: 8506783 cumulative IPC: 2.351 (Simulation time: 00 hr 03 min 24 sec)
Heartbeat CPU 0 instructions: 30000003 cycles: 16839530 heartbeat IPC: 1.2 cumulative IPC: 1.2 (Simulation time: 00 hr 06 min 07 sec)
Heartbeat CPU 0 instructions: 40000004 cycles: 25167675 heartbeat IPC: 1.201 cumulative IPC: 1.2 (Simulation time: 00 hr 08 min 51 sec)
Heartbeat CPU 0 instructions: 50000011 cycles: 33491414 heartbeat IPC: 1.201 cumulative IPC: 1.201 (Simulation time: 00 hr 11 min 36 sec)
Heartbeat CPU 0 instructions: 60000013 cycles: 41829900 heartbeat IPC: 1.199 cumulative IPC: 1.2 (Simulation time: 00 hr 14 min 20 sec)
Simulation finished CPU 0 instructions: 50000000 cycles: 41658311 cumulative IPC: 1.2 (Simulation time: 00 hr 17 min 03 sec)
Simulation complete CPU 0 instructions: 50000000 cycles: 41658311 cumulative IPC: 1.2 (Simulation time: 00 hr 17 min 03 sec)

ChampSim completed all CPUs

=== Simulation ===
CPU 0 runs traces/A2/603.bwaves_s-1740B.champsimtrace.xz

Region of Interest Statistics

CPU 0 cumulative IPC: 1.2 instructions: 50000000 cycles: 41658311
CPU 0 Branch Prediction Accuracy: 99.97% MPKI: 0.00734 Average ROB Occupancy at Mispredict: 190
Branch type MPKI
BRANCH_DIRECT_JUMP: 0
BRANCH_INDIRECT: 0
BRANCH_CONDITIONAL: 0.00734
BRANCH_DIRECT_CALL: 0
BRANCH_INDIRECT_CALL: 0
BRANCH_RETURN: 0

cpu0->cpu0_STLB TOTAL        ACCESS:       7425 HIT:        365 MISS:       7060 MSHR_MERGE:          0
cpu0->cpu0_STLB LOAD         ACCESS:       7425 HIT:        365 MISS:       7060 MSHR_MERGE:          0
cpu0->cpu0_STLB RFO          ACCESS:          0 HIT:          0 MISS:          0 MSHR_MERGE:          0
cpu0->cpu0_STLB PREFETCH     ACCESS:          0 HIT:          0 MISS:          0 MSHR_MERGE:          0
cpu0->cpu0_STLB WRITE        ACCESS:          0 HIT:          0 MISS:          0 MSHR_MERGE:          0
cpu0->cpu0_STLB TRANSLATION  ACCESS:          0 HIT:          0 MISS:          0 MSHR_MERGE:          0
cpu0->cpu0_STLB PREFETCH REQUESTED:          0 ISSUED:          0 USEFUL:          0 USELESS:          0
cpu0->cpu0_STLB AVERAGE MISS LATENCY: 691 cycles
cpu0->cpu0_L2C TOTAL        ACCESS:    3709489 HIT:    1829582 MISS:    1879907 MSHR_MERGE:     355720
cpu0->cpu0_L2C LOAD         ACCESS:    1020064 HIT:     829577 MISS:     190487 MSHR_MERGE:      62657
cpu0->cpu0_L2C RFO          ACCESS:      32878 HIT:       8513 MISS:      24365 MSHR_MERGE:          0
cpu0->cpu0_L2C PREFETCH     ACCESS:    2606469 HIT:     952091 MISS:    1654378 MSHR_MERGE:     293063
cpu0->cpu0_L2C WRITE        ACCESS:      36586 HIT:      36304 MISS:        282 MSHR_MERGE:          0
cpu0->cpu0_L2C TRANSLATION  ACCESS:      13492 HIT:       3097 MISS:      10395 MSHR_MERGE:          0
cpu0->cpu0_L2C PREFETCH REQUESTED:    2614956 ISSUED:    2606464 USEFUL:     804321 USELESS:          2
cpu0->cpu0_L2C AVERAGE MISS LATENCY: 91.2 cycles
cpu0->cpu0_L1I TOTAL        ACCESS:   11003191 HIT:   11003191 MISS:          0 MSHR_MERGE:          0
cpu0->cpu0_L1I LOAD         ACCESS:   11003191 HIT:   11003191 MISS:          0 MSHR_MERGE:          0
cpu0->cpu0_L1I RFO          ACCESS:          0 HIT:          0 MISS:          0 MSHR_MERGE:          0
cpu0->cpu0_L1I PREFETCH     ACCESS:          0 HIT:          0 MISS:          0 MSHR_MERGE:          0
cpu0->cpu0_L1I WRITE        ACCESS:          0 HIT:          0 MISS:          0 MSHR_MERGE:          0
cpu0->cpu0_L1I TRANSLATION  ACCESS:          0 HIT:          0 MISS:          0 MSHR_MERGE:          0
cpu0->cpu0_L1I PREFETCH REQUESTED:          0 ISSUED:          0 USEFUL:          0 USELESS:          0
cpu0->cpu0_L1I AVERAGE MISS LATENCY: - cycles
cpu0->cpu0_L1D TOTAL        ACCESS:   16755013 HIT:   15633857 MISS:    1121156 MSHR_MERGE:      54638
cpu0->cpu0_L1D LOAD         ACCESS:   13924289 HIT:   12875381 MISS:    1048908 MSHR_MERGE:      28813
cpu0->cpu0_L1D RFO          ACCESS:          0 HIT:          0 MISS:          0 MSHR_MERGE:          0
cpu0->cpu0_L1D PREFETCH     ACCESS:          0 HIT:          0 MISS:          0 MSHR_MERGE:          0
cpu0->cpu0_L1D WRITE        ACCESS:    2816699 HIT:    2758168 MISS:      58531 MSHR_MERGE:      25600
cpu0->cpu0_L1D TRANSLATION  ACCESS:      14025 HIT:        308 MISS:      13717 MSHR_MERGE:        225
cpu0->cpu0_L1D PREFETCH REQUESTED:          0 ISSUED:          0 USEFUL:          0 USELESS:          0
cpu0->cpu0_L1D AVERAGE MISS LATENCY: 27.71 cycles
cpu0->cpu0_ITLB TOTAL        ACCESS:    9935201 HIT:    9935201 MISS:          0 MSHR_MERGE:          0
cpu0->cpu0_ITLB LOAD         ACCESS:    9935201 HIT:    9935201 MISS:          0 MSHR_MERGE:          0
cpu0->cpu0_ITLB RFO          ACCESS:          0 HIT:          0 MISS:          0 MSHR_MERGE:          0
cpu0->cpu0_ITLB PREFETCH     ACCESS:          0 HIT:          0 MISS:          0 MSHR_MERGE:          0
cpu0->cpu0_ITLB WRITE        ACCESS:          0 HIT:          0 MISS:          0 MSHR_MERGE:          0
cpu0->cpu0_ITLB TRANSLATION  ACCESS:          0 HIT:          0 MISS:          0 MSHR_MERGE:          0
cpu0->cpu0_ITLB PREFETCH REQUESTED:          0 ISSUED:          0 USEFUL:          0 USELESS:          0
cpu0->cpu0_ITLB AVERAGE MISS LATENCY: - cycles
cpu0->cpu0_DTLB TOTAL        ACCESS:   16141648 HIT:   16128797 MISS:      12851 MSHR_MERGE:       5426
cpu0->cpu0_DTLB LOAD         ACCESS:   16141648 HIT:   16128797 MISS:      12851 MSHR_MERGE:       5426
cpu0->cpu0_DTLB RFO          ACCESS:          0 HIT:          0 MISS:          0 MSHR_MERGE:          0
cpu0->cpu0_DTLB PREFETCH     ACCESS:          0 HIT:          0 MISS:          0 MSHR_MERGE:          0
cpu0->cpu0_DTLB WRITE        ACCESS:          0 HIT:          0 MISS:          0 MSHR_MERGE:          0
cpu0->cpu0_DTLB TRANSLATION  ACCESS:          0 HIT:          0 MISS:          0 MSHR_MERGE:          0
cpu0->cpu0_DTLB PREFETCH REQUESTED:          0 ISSUED:          0 USEFUL:          0 USELESS:          0
cpu0->cpu0_DTLB AVERAGE MISS LATENCY: 662 cycles
cpu0->LLC TOTAL        ACCESS:    1548606 HIT:     437475 MISS:    1111131 MSHR_MERGE:      95536
cpu0->LLC LOAD         ACCESS:     127830 HIT:      89130 MISS:      38700 MSHR_MERGE:       6680
cpu0->LLC RFO          ACCESS:      24365 HIT:          2 MISS:      24363 MSHR_MERGE:          0
cpu0->LLC PREFETCH     ACCESS:    1361315 HIT:     345366 MISS:    1015949 MSHR_MERGE:      88856
cpu0->LLC WRITE        ACCESS:      24701 HIT:       2970 MISS:      21731 MSHR_MERGE:          0
cpu0->LLC TRANSLATION  ACCESS:      10395 HIT:          7 MISS:      10388 MSHR_MERGE:          0
cpu0->LLC PREFETCH REQUESTED:          0 ISSUED:          0 USEFUL:          0 USELESS:          0
cpu0->LLC AVERAGE MISS LATENCY: 126.6 cycles

DRAM Statistics

Channel 0 RQ ROW_BUFFER_HIT:      18697
  ROW_BUFFER_MISS:     975167
  AVG DBUS CONGESTED CYCLE: 4.11
Channel 0 WQ ROW_BUFFER_HIT:       1840
  ROW_BUFFER_MISS:      23683
  FULL:          0
Channel 0 REFRESHES ISSUED:       3472
