[VMEM] WARNING: physical memory size is smaller than virtual memory size.
WARNING: option --warmup_instructions is deprecated. Use --warmup-instructions instead.
WARNING: option --simulation_instructions is deprecated. Use --simulation-instructions instead.

*** ChampSim Multicore Out-of-Order Simulator ***
Warmup Instructions: 20000000
Simulation Instructions: 50000000
Number of CPUs: 1
Page size: 8192

Off-chip DRAM Size: 16 GiB Channels: 1 Width: 64-bit Data Rate: 3205 MT/s
Heartbeat CPU 0 instructions: 10000000 cycles: 8194218 heartbeat IPC: 1.22 cumulative IPC: 1.22 (Simulation time: 00 hr 02 min 56 sec)
Heartbeat CPU 0 instructions: 20000007 cycles: 15179486 heartbeat IPC: 1.432 cumulative IPC: 1.318 (Simulation time: 00 hr 05 min 36 sec)
Warmup finished CPU 0 instructions: 20000007 cycles: 15179486 cumulative IPC: 1.318 (Simulation time: 00 hr 05 min 36 sec)
Warmup complete CPU 0 instructions: 20000007 cycles: 15179486 cumulative IPC: 1.318 (Simulation time: 00 hr 05 min 36 sec)
Heartbeat CPU 0 instructions: 30000010 cycles: 44087252 heartbeat IPC: 0.3459 cumulative IPC: 0.3459 (Simulation time: 00 hr 12 min 15 sec)
Heartbeat CPU 0 instructions: 40000016 cycles: 73306252 heartbeat IPC: 0.3422 cumulative IPC: 0.3441 (Simulation time: 00 hr 19 min 38 sec)
Heartbeat CPU 0 instructions: 50000018 cycles: 102427659 heartbeat IPC: 0.3434 cumulative IPC: 0.3438 (Simulation time: 00 hr 27 min 09 sec)
Heartbeat CPU 0 instructions: 60000019 cycles: 129866125 heartbeat IPC: 0.3645 cumulative IPC: 0.3488 (Simulation time: 00 hr 33 min 44 sec)
Simulation finished CPU 0 instructions: 50000000 cycles: 141356158 cumulative IPC: 0.3537 (Simulation time: 00 hr 40 min 12 sec)
Simulation complete CPU 0 instructions: 50000000 cycles: 141356158 cumulative IPC: 0.3537 (Simulation time: 00 hr 40 min 12 sec)

ChampSim completed all CPUs

=== Simulation ===
CPU 0 runs traces/A2/620.omnetpp_s-874B.champsimtrace.xz

Region of Interest Statistics

CPU 0 cumulative IPC: 0.3537 instructions: 50000000 cycles: 141356158
CPU 0 Branch Prediction Accuracy: 96.16% MPKI: 7.99 Average ROB Occupancy at Mispredict: 48.33
Branch type MPKI
BRANCH_DIRECT_JUMP: 0.9384
BRANCH_INDIRECT: 0.1208
BRANCH_CONDITIONAL: 5.805
BRANCH_DIRECT_CALL: 0.00236
BRANCH_INDIRECT_CALL: 0.7298
BRANCH_RETURN: 0.3936

cpu0->cpu0_STLB TOTAL        ACCESS:     828525 HIT:     691429 MISS:     137096 MSHR_MERGE:          0
cpu0->cpu0_STLB LOAD         ACCESS:     828525 HIT:     691429 MISS:     137096 MSHR_MERGE:          0
cpu0->cpu0_STLB RFO          ACCESS:          0 HIT:          0 MISS:          0 MSHR_MERGE:          0
cpu0->cpu0_STLB PREFETCH     ACCESS:          0 HIT:          0 MISS:          0 MSHR_MERGE:          0
cpu0->cpu0_STLB WRITE        ACCESS:          0 HIT:          0 MISS:          0 MSHR_MERGE:          0
cpu0->cpu0_STLB TRANSLATION  ACCESS:          0 HIT:          0 MISS:          0 MSHR_MERGE:          0
cpu0->cpu0_STLB PREFETCH REQUESTED:          0 ISSUED:          0 USEFUL:          0 USELESS:          0
cpu0->cpu0_STLB AVERAGE MISS LATENCY: 324.2 cycles
cpu0->cpu0_L2C TOTAL        ACCESS:    1899507 HIT:     859517 MISS:    1039990 MSHR_MERGE:          4
cpu0->cpu0_L2C LOAD         ACCESS:     934287 HIT:     285645 MISS:     648642 MSHR_MERGE:          1
cpu0->cpu0_L2C RFO          ACCESS:     138734 HIT:      32589 MISS:     106145 MSHR_MERGE:          0
cpu0->cpu0_L2C PREFETCH     ACCESS:      26134 HIT:      13455 MISS:      12679 MSHR_MERGE:          3
cpu0->cpu0_L2C WRITE        ACCESS:     507091 HIT:     504905 MISS:       2186 MSHR_MERGE:          0
cpu0->cpu0_L2C TRANSLATION  ACCESS:     293261 HIT:      22923 MISS:     270338 MSHR_MERGE:          0
cpu0->cpu0_L2C PREFETCH REQUESTED:      26134 ISSUED:      26134 USEFUL:       6483 USELESS:       6127
cpu0->cpu0_L2C AVERAGE MISS LATENCY: 137.6 cycles
cpu0->cpu0_L1I TOTAL        ACCESS:    7003239 HIT:    6982347 MISS:      20892 MSHR_MERGE:       2442
cpu0->cpu0_L1I LOAD         ACCESS:    7003239 HIT:    6982347 MISS:      20892 MSHR_MERGE:       2442
cpu0->cpu0_L1I RFO          ACCESS:          0 HIT:          0 MISS:          0 MSHR_MERGE:          0
cpu0->cpu0_L1I PREFETCH     ACCESS:          0 HIT:          0 MISS:          0 MSHR_MERGE:          0
cpu0->cpu0_L1I WRITE        ACCESS:          0 HIT:          0 MISS:          0 MSHR_MERGE:          0
cpu0->cpu0_L1I TRANSLATION  ACCESS:          0 HIT:          0 MISS:          0 MSHR_MERGE:          0
cpu0->cpu0_L1I PREFETCH REQUESTED:          0 ISSUED:          0 USEFUL:          0 USELESS:          0
cpu0->cpu0_L1I AVERAGE MISS LATENCY: 26.27 cycles
cpu0->cpu0_L1D TOTAL        ACCESS:   18372824 HIT:   16587408 MISS:    1785416 MSHR_MERGE:     437576
cpu0->cpu0_L1D LOAD         ACCESS:    9120345 HIT:    8004342 MISS:    1116003 MSHR_MERGE:     200162
cpu0->cpu0_L1D RFO          ACCESS:          0 HIT:          0 MISS:          0 MSHR_MERGE:          0
cpu0->cpu0_L1D PREFETCH     ACCESS:          0 HIT:          0 MISS:          0 MSHR_MERGE:          0
cpu0->cpu0_L1D WRITE        ACCESS:    8951217 HIT:    8575375 MISS:     375842 MSHR_MERGE:     237104
cpu0->cpu0_L1D TRANSLATION  ACCESS:     301262 HIT:       7691 MISS:     293571 MSHR_MERGE:        310
cpu0->cpu0_L1D PREFETCH REQUESTED:          0 ISSUED:          0 USEFUL:          0 USELESS:          0
cpu0->cpu0_L1D AVERAGE MISS LATENCY: 113.4 cycles
cpu0->cpu0_ITLB TOTAL        ACCESS:    6447433 HIT:    6447233 MISS:        200 MSHR_MERGE:         96
cpu0->cpu0_ITLB LOAD         ACCESS:    6447433 HIT:    6447233 MISS:        200 MSHR_MERGE:         96
cpu0->cpu0_ITLB RFO          ACCESS:          0 HIT:          0 MISS:          0 MSHR_MERGE:          0
cpu0->cpu0_ITLB PREFETCH     ACCESS:          0 HIT:          0 MISS:          0 MSHR_MERGE:          0
cpu0->cpu0_ITLB WRITE        ACCESS:          0 HIT:          0 MISS:          0 MSHR_MERGE:          0
cpu0->cpu0_ITLB TRANSLATION  ACCESS:          0 HIT:          0 MISS:          0 MSHR_MERGE:          0
cpu0->cpu0_ITLB PREFETCH REQUESTED:          0 ISSUED:          0 USEFUL:          0 USELESS:          0
cpu0->cpu0_ITLB AVERAGE MISS LATENCY: 193.2 cycles
cpu0->cpu0_DTLB TOTAL        ACCESS:   16852714 HIT:   15905438 MISS:     947276 MSHR_MERGE:     118855
cpu0->cpu0_DTLB LOAD         ACCESS:   16852714 HIT:   15905438 MISS:     947276 MSHR_MERGE:     118855
cpu0->cpu0_DTLB RFO          ACCESS:          0 HIT:          0 MISS:          0 MSHR_MERGE:          0
cpu0->cpu0_DTLB PREFETCH     ACCESS:          0 HIT:          0 MISS:          0 MSHR_MERGE:          0
cpu0->cpu0_DTLB WRITE        ACCESS:          0 HIT:          0 MISS:          0 MSHR_MERGE:          0
cpu0->cpu0_DTLB TRANSLATION  ACCESS:          0 HIT:          0 MISS:          0 MSHR_MERGE:          0
cpu0->cpu0_DTLB PREFETCH REQUESTED:          0 ISSUED:          0 USEFUL:          0 USELESS:          0
cpu0->cpu0_DTLB AVERAGE MISS LATENCY: 57.79 cycles
cpu0->LLC TOTAL        ACCESS:    1417837 HIT:     338620 MISS:    1079217 MSHR_MERGE:          0
cpu0->LLC LOAD         ACCESS:     648641 HIT:     130706 MISS:     517935 MSHR_MERGE:          0
cpu0->LLC RFO          ACCESS:     106145 HIT:      23425 MISS:      82720 MSHR_MERGE:          0
cpu0->LLC PREFETCH     ACCESS:      12676 HIT:        727 MISS:      11949 MSHR_MERGE:          0
cpu0->LLC WRITE        ACCESS:     380037 HIT:     126972 MISS:     253065 MSHR_MERGE:          0
cpu0->LLC TRANSLATION  ACCESS:     270338 HIT:      56790 MISS:     213548 MSHR_MERGE:          0
cpu0->LLC PREFETCH REQUESTED:          0 ISSUED:          0 USEFUL:          0 USELESS:          0
cpu0->LLC AVERAGE MISS LATENCY: 118.5 cycles

DRAM Statistics

Channel 0 RQ ROW_BUFFER_HIT:      13556
  ROW_BUFFER_MISS:     812553
  AVG DBUS CONGESTED CYCLE: 23.63
Channel 0 WQ ROW_BUFFER_HIT:      73880
  ROW_BUFFER_MISS:     204601
  FULL:          0
Channel 0 REFRESHES ISSUED:      11780
