[VMEM] WARNING: physical memory size is smaller than virtual memory size.
WARNING: option --warmup_instructions is deprecated. Use --warmup-instructions instead.
WARNING: option --simulation_instructions is deprecated. Use --simulation-instructions instead.

*** ChampSim Multicore Out-of-Order Simulator ***
Warmup Instructions: 20000000
Simulation Instructions: 50000000
Number of CPUs: 1
Page size: 8192

Off-chip DRAM Size: 16 GiB Channels: 1 Width: 64-bit Data Rate: 3205 MT/s
Heartbeat CPU 0 instructions: 10000000 cycles: 6771776 heartbeat IPC: 1.477 cumulative IPC: 1.477 (Simulation time: 00 hr 02 min 28 sec)
Heartbeat CPU 0 instructions: 20000005 cycles: 10659747 heartbeat IPC: 2.572 cumulative IPC: 1.876 (Simulation time: 00 hr 04 min 24 sec)
Warmup finished CPU 0 instructions: 20000005 cycles: 10659747 cumulative IPC: 1.876 (Simulation time: 00 hr 04 min 24 sec)
Warmup complete CPU 0 instructions: 20000005 cycles: 10659747 cumulative IPC: 1.876 (Simulation time: 00 hr 04 min 24 sec)
Heartbeat CPU 0 instructions: 30000007 cycles: 61613134 heartbeat IPC: 0.1963 cumulative IPC: 0.1963 (Simulation time: 00 hr 14 min 41 sec)
Heartbeat CPU 0 instructions: 40000013 cycles: 113681278 heartbeat IPC: 0.1921 cumulative IPC: 0.1941 (Simulation time: 00 hr 26 min 30 sec)
Heartbeat CPU 0 instructions: 50000018 cycles: 165829164 heartbeat IPC: 0.1918 cumulative IPC: 0.1933 (Simulation time: 00 hr 37 min 53 sec)
Heartbeat CPU 0 instructions: 60000018 cycles: 217813659 heartbeat IPC: 0.1924 cumulative IPC: 0.1931 (Simulation time: 00 hr 48 min 46 sec)
Simulation finished CPU 0 instructions: 50000002 cycles: 257651190 cumulative IPC: 0.1941 (Simulation time: 00 hr 59 min 50 sec)
Simulation complete CPU 0 instructions: 50000002 cycles: 257651190 cumulative IPC: 0.1941 (Simulation time: 00 hr 59 min 50 sec)

ChampSim completed all CPUs

=== Simulation ===
CPU 0 runs traces/A2/473.astar-359B.champsimtrace.xz

Region of Interest Statistics

CPU 0 cumulative IPC: 0.1941 instructions: 50000002 cycles: 257651190
CPU 0 Branch Prediction Accuracy: 93.2% MPKI: 13.43 Average ROB Occupancy at Mispredict: 43.18
Branch type MPKI
BRANCH_DIRECT_JUMP: 0
BRANCH_INDIRECT: 0
BRANCH_CONDITIONAL: 13.42
BRANCH_DIRECT_CALL: 0
BRANCH_INDIRECT_CALL: 0.00054
BRANCH_RETURN: 0

cpu0->cpu0_STLB TOTAL        ACCESS:    1275561 HIT:     889304 MISS:     386257 MSHR_MERGE:          0
cpu0->cpu0_STLB LOAD         ACCESS:    1275561 HIT:     889304 MISS:     386257 MSHR_MERGE:          0
cpu0->cpu0_STLB RFO          ACCESS:          0 HIT:          0 MISS:          0 MSHR_MERGE:          0
cpu0->cpu0_STLB PREFETCH     ACCESS:          0 HIT:          0 MISS:          0 MSHR_MERGE:          0
cpu0->cpu0_STLB WRITE        ACCESS:          0 HIT:          0 MISS:          0 MSHR_MERGE:          0
cpu0->cpu0_STLB TRANSLATION  ACCESS:          0 HIT:          0 MISS:          0 MSHR_MERGE:          0
cpu0->cpu0_STLB PREFETCH REQUESTED:          0 ISSUED:          0 USEFUL:          0 USELESS:          0
cpu0->cpu0_STLB AVERAGE MISS LATENCY: 586.6 cycles
cpu0->cpu0_L2C TOTAL        ACCESS:    4870671 HIT:    2127326 MISS:    2743345 MSHR_MERGE:       7484
cpu0->cpu0_L2C LOAD         ACCESS:    1775431 HIT:     738759 MISS:    1036672 MSHR_MERGE:        326
cpu0->cpu0_L2C RFO          ACCESS:     767626 HIT:      48501 MISS:     719125 MSHR_MERGE:          0
cpu0->cpu0_L2C PREFETCH     ACCESS:     508624 HIT:     163160 MISS:     345464 MSHR_MERGE:       7158
cpu0->cpu0_L2C WRITE        ACCESS:    1168852 HIT:    1168816 MISS:         36 MSHR_MERGE:          0
cpu0->cpu0_L2C TRANSLATION  ACCESS:     650138 HIT:       8090 MISS:     642048 MSHR_MERGE:          0
cpu0->cpu0_L2C PREFETCH REQUESTED:     508624 ISSUED:     508624 USEFUL:       7607 USELESS:       9942
cpu0->cpu0_L2C AVERAGE MISS LATENCY: 258.4 cycles
cpu0->cpu0_L1I TOTAL        ACCESS:     643483 HIT:     643476 MISS:          7 MSHR_MERGE:          0
cpu0->cpu0_L1I LOAD         ACCESS:     643483 HIT:     643476 MISS:          7 MSHR_MERGE:          0
cpu0->cpu0_L1I RFO          ACCESS:          0 HIT:          0 MISS:          0 MSHR_MERGE:          0
cpu0->cpu0_L1I PREFETCH     ACCESS:          0 HIT:          0 MISS:          0 MSHR_MERGE:          0
cpu0->cpu0_L1I WRITE        ACCESS:          0 HIT:          0 MISS:          0 MSHR_MERGE:          0
cpu0->cpu0_L1I TRANSLATION  ACCESS:          0 HIT:          0 MISS:          0 MSHR_MERGE:          0
cpu0->cpu0_L1I PREFETCH REQUESTED:          0 ISSUED:          0 USEFUL:          0 USELESS:          0
cpu0->cpu0_L1I AVERAGE MISS LATENCY: 179.1 cycles
cpu0->cpu0_L1D TOTAL        ACCESS:   19752302 HIT:   15950481 MISS:    3801821 MSHR_MERGE:     608632
cpu0->cpu0_L1D LOAD         ACCESS:   12672878 HIT:   10382344 MISS:    2290534 MSHR_MERGE:     515110
cpu0->cpu0_L1D RFO          ACCESS:          0 HIT:          0 MISS:          0 MSHR_MERGE:          0
cpu0->cpu0_L1D PREFETCH     ACCESS:          0 HIT:          0 MISS:          0 MSHR_MERGE:          0
cpu0->cpu0_L1D WRITE        ACCESS:    6302320 HIT:    5534629 MISS:     767691 MSHR_MERGE:         65
cpu0->cpu0_L1D TRANSLATION  ACCESS:     777104 HIT:      33508 MISS:     743596 MSHR_MERGE:      93457
cpu0->cpu0_L1D PREFETCH REQUESTED:          0 ISSUED:          0 USEFUL:          0 USELESS:          0
cpu0->cpu0_L1D AVERAGE MISS LATENCY: 202.9 cycles
cpu0->cpu0_ITLB TOTAL        ACCESS:     640529 HIT:     640529 MISS:          0 MSHR_MERGE:          0
cpu0->cpu0_ITLB LOAD         ACCESS:     640529 HIT:     640529 MISS:          0 MSHR_MERGE:          0
cpu0->cpu0_ITLB RFO          ACCESS:          0 HIT:          0 MISS:          0 MSHR_MERGE:          0
cpu0->cpu0_ITLB PREFETCH     ACCESS:          0 HIT:          0 MISS:          0 MSHR_MERGE:          0
cpu0->cpu0_ITLB WRITE        ACCESS:          0 HIT:          0 MISS:          0 MSHR_MERGE:          0
cpu0->cpu0_ITLB TRANSLATION  ACCESS:          0 HIT:          0 MISS:          0 MSHR_MERGE:          0
cpu0->cpu0_ITLB PREFETCH REQUESTED:          0 ISSUED:          0 USEFUL:          0 USELESS:          0
cpu0->cpu0_ITLB AVERAGE MISS LATENCY: - cycles
cpu0->cpu0_DTLB TOTAL        ACCESS:   18060678 HIT:   16225925 MISS:    1834753 MSHR_MERGE:     559192
cpu0->cpu0_DTLB LOAD         ACCESS:   18060678 HIT:   16225925 MISS:    1834753 MSHR_MERGE:     559192
cpu0->cpu0_DTLB RFO          ACCESS:          0 HIT:          0 MISS:          0 MSHR_MERGE:          0
cpu0->cpu0_DTLB PREFETCH     ACCESS:          0 HIT:          0 MISS:          0 MSHR_MERGE:          0
cpu0->cpu0_DTLB WRITE        ACCESS:          0 HIT:          0 MISS:          0 MSHR_MERGE:          0
cpu0->cpu0_DTLB TRANSLATION  ACCESS:          0 HIT:          0 MISS:          0 MSHR_MERGE:          0
cpu0->cpu0_DTLB PREFETCH REQUESTED:          0 ISSUED:          0 USEFUL:          0 USELESS:          0
cpu0->cpu0_DTLB AVERAGE MISS LATENCY: 181.9 cycles
cpu0->LLC TOTAL        ACCESS:    3854950 HIT:    1026559 MISS:    2828391 MSHR_MERGE:      19576
cpu0->LLC LOAD         ACCESS:    1036346 HIT:     248074 MISS:     788272 MSHR_MERGE:       1043
cpu0->LLC RFO          ACCESS:     719124 HIT:     124203 MISS:     594921 MSHR_MERGE:          0
cpu0->LLC PREFETCH     ACCESS:     338306 HIT:     284481 MISS:      53825 MSHR_MERGE:      18533
cpu0->LLC WRITE        ACCESS:    1119126 HIT:     263996 MISS:     855130 MSHR_MERGE:          0
cpu0->LLC TRANSLATION  ACCESS:     642048 HIT:     105805 MISS:     536243 MSHR_MERGE:          0
cpu0->LLC PREFETCH REQUESTED:          0 ISSUED:          0 USEFUL:          0 USELESS:          0
cpu0->LLC AVERAGE MISS LATENCY: 211.6 cycles

DRAM Statistics

Channel 0 RQ ROW_BUFFER_HIT:      67687
  ROW_BUFFER_MISS:    1885872
  AVG DBUS CONGESTED CYCLE: 20.46
Channel 0 WQ ROW_BUFFER_HIT:     139471
  ROW_BUFFER_MISS:     767062
  FULL:        168
Channel 0 REFRESHES ISSUED:      21471
