[VMEM] WARNING: physical memory size is smaller than virtual memory size.
WARNING: option --warmup_instructions is deprecated. Use --warmup-instructions instead.
WARNING: option --simulation_instructions is deprecated. Use --simulation-instructions instead.

*** ChampSim Multicore Out-of-Order Simulator ***
Warmup Instructions: 20000000
Simulation Instructions: 50000000
Number of CPUs: 1
Page size: 8192

Off-chip DRAM Size: 16 GiB Channels: 1 Width: 64-bit Data Rate: 3205 MT/s
Heartbeat CPU 0 instructions: 10000003 cycles: 6056686 heartbeat IPC: 1.651 cumulative IPC: 1.651 (Simulation time: 00 hr 00 min 58 sec)
Heartbeat CPU 0 instructions: 20000003 cycles: 11987557 heartbeat IPC: 1.686 cumulative IPC: 1.668 (Simulation time: 00 hr 02 min 04 sec)
Warmup finished CPU 0 instructions: 20000003 cycles: 11987557 cumulative IPC: 1.668 (Simulation time: 00 hr 02 min 04 sec)
Warmup complete CPU 0 instructions: 20000003 cycles: 11987557 cumulative IPC: 1.668 (Simulation time: 00 hr 02 min 04 sec)
Heartbeat CPU 0 instructions: 30000003 cycles: 27575517 heartbeat IPC: 0.6415 cumulative IPC: 0.6415 (Simulation time: 00 hr 03 min 54 sec)
Heartbeat CPU 0 instructions: 40000005 cycles: 36777891 heartbeat IPC: 1.087 cumulative IPC: 0.8068 (Simulation time: 00 hr 05 min 04 sec)
Heartbeat CPU 0 instructions: 50000007 cycles: 49392717 heartbeat IPC: 0.7927 cumulative IPC: 0.802 (Simulation time: 00 hr 06 min 35 sec)
Heartbeat CPU 0 instructions: 60000010 cycles: 68374788 heartbeat IPC: 0.5268 cumulative IPC: 0.7094 (Simulation time: 00 hr 08 min 46 sec)
Simulation finished CPU 0 instructions: 50000003 cycles: 68545496 cumulative IPC: 0.7294 (Simulation time: 00 hr 10 min 15 sec)
Simulation complete CPU 0 instructions: 50000003 cycles: 68545496 cumulative IPC: 0.7294 (Simulation time: 00 hr 10 min 15 sec)

ChampSim completed all CPUs

=== Simulation ===
CPU 0 runs traces/429.mcf-217B.champsimtrace.xz

Region of Interest Statistics

CPU 0 cumulative IPC: 0.7294 instructions: 50000003 cycles: 68545496
CPU 0 Branch Prediction Accuracy: 98.95% MPKI: 1.194 Average ROB Occupancy at Mispredict: 121.5
Branch type MPKI
BRANCH_DIRECT_JUMP: 0
BRANCH_INDIRECT: 0
BRANCH_CONDITIONAL: 1.194
BRANCH_DIRECT_CALL: 0
BRANCH_INDIRECT_CALL: 0
BRANCH_RETURN: 0

cpu0->cpu0_STLB TOTAL        ACCESS:      57967 HIT:      56117 MISS:       1850 MSHR_MERGE:          0
cpu0->cpu0_STLB LOAD         ACCESS:      57967 HIT:      56117 MISS:       1850 MSHR_MERGE:          0
cpu0->cpu0_STLB RFO          ACCESS:          0 HIT:          0 MISS:          0 MSHR_MERGE:          0
cpu0->cpu0_STLB PREFETCH     ACCESS:          0 HIT:          0 MISS:          0 MSHR_MERGE:          0
cpu0->cpu0_STLB WRITE        ACCESS:          0 HIT:          0 MISS:          0 MSHR_MERGE:          0
cpu0->cpu0_STLB TRANSLATION  ACCESS:          0 HIT:          0 MISS:          0 MSHR_MERGE:          0
cpu0->cpu0_STLB PREFETCH REQUESTED:          0 ISSUED:          0 USEFUL:          0 USELESS:          0
cpu0->cpu0_STLB AVERAGE MISS LATENCY: 699.5 cycles
cpu0->cpu0_L2C TOTAL        ACCESS:   10129342 HIT:    4328171 MISS:    5801171 MSHR_MERGE:    2966883
cpu0->cpu0_L2C LOAD         ACCESS:    2598449 HIT:    1806881 MISS:     791568 MSHR_MERGE:     620649
cpu0->cpu0_L2C RFO          ACCESS:       1567 HIT:       1437 MISS:        130 MSHR_MERGE:          0
cpu0->cpu0_L2C PREFETCH     ACCESS:    7429720 HIT:    2423863 MISS:    5005857 MSHR_MERGE:    2346234
cpu0->cpu0_L2C WRITE        ACCESS:      96214 HIT:      95496 MISS:        718 MSHR_MERGE:          0
cpu0->cpu0_L2C TRANSLATION  ACCESS:       3392 HIT:        494 MISS:       2898 MSHR_MERGE:          0
cpu0->cpu0_L2C PREFETCH REQUESTED:    7438204 ISSUED:    7429706 USEFUL:    2407978 USELESS:     156192
cpu0->cpu0_L2C AVERAGE MISS LATENCY: 75.24 cycles
cpu0->cpu0_L1I TOTAL        ACCESS:    9377243 HIT:    9377243 MISS:          0 MSHR_MERGE:          0
cpu0->cpu0_L1I LOAD         ACCESS:    9377243 HIT:    9377243 MISS:          0 MSHR_MERGE:          0
cpu0->cpu0_L1I RFO          ACCESS:          0 HIT:          0 MISS:          0 MSHR_MERGE:          0
cpu0->cpu0_L1I PREFETCH     ACCESS:          0 HIT:          0 MISS:          0 MSHR_MERGE:          0
cpu0->cpu0_L1I WRITE        ACCESS:          0 HIT:          0 MISS:          0 MSHR_MERGE:          0
cpu0->cpu0_L1I TRANSLATION  ACCESS:          0 HIT:          0 MISS:          0 MSHR_MERGE:          0
cpu0->cpu0_L1I PREFETCH REQUESTED:          0 ISSUED:          0 USEFUL:          0 USELESS:          0
cpu0->cpu0_L1I AVERAGE MISS LATENCY: - cycles
cpu0->cpu0_L1D TOTAL        ACCESS:   16470891 HIT:   13768143 MISS:    2702748 MSHR_MERGE:      99310
cpu0->cpu0_L1D LOAD         ACCESS:    8595746 HIT:    5899992 MISS:    2695754 MSHR_MERGE:      97275
cpu0->cpu0_L1D RFO          ACCESS:          0 HIT:          0 MISS:          0 MSHR_MERGE:          0
cpu0->cpu0_L1D PREFETCH     ACCESS:          0 HIT:          0 MISS:          0 MSHR_MERGE:          0
cpu0->cpu0_L1D WRITE        ACCESS:    7871438 HIT:    7867836 MISS:       3602 MSHR_MERGE:       2035
cpu0->cpu0_L1D TRANSLATION  ACCESS:       3707 HIT:        315 MISS:       3392 MSHR_MERGE:          0
cpu0->cpu0_L1D PREFETCH REQUESTED:          0 ISSUED:          0 USEFUL:          0 USELESS:          0
cpu0->cpu0_L1D AVERAGE MISS LATENCY: 31.3 cycles
cpu0->cpu0_ITLB TOTAL        ACCESS:    8200603 HIT:    8200603 MISS:          0 MSHR_MERGE:          0
cpu0->cpu0_ITLB LOAD         ACCESS:    8200603 HIT:    8200603 MISS:          0 MSHR_MERGE:          0
cpu0->cpu0_ITLB RFO          ACCESS:          0 HIT:          0 MISS:          0 MSHR_MERGE:          0
cpu0->cpu0_ITLB PREFETCH     ACCESS:          0 HIT:          0 MISS:          0 MSHR_MERGE:          0
cpu0->cpu0_ITLB WRITE        ACCESS:          0 HIT:          0 MISS:          0 MSHR_MERGE:          0
cpu0->cpu0_ITLB TRANSLATION  ACCESS:          0 HIT:          0 MISS:          0 MSHR_MERGE:          0
cpu0->cpu0_ITLB PREFETCH REQUESTED:          0 ISSUED:          0 USEFUL:          0 USELESS:          0
cpu0->cpu0_ITLB AVERAGE MISS LATENCY: - cycles
cpu0->cpu0_DTLB TOTAL        ACCESS:   14951232 HIT:   14877407 MISS:      73825 MSHR_MERGE:      15859
cpu0->cpu0_DTLB LOAD         ACCESS:   14951232 HIT:   14877407 MISS:      73825 MSHR_MERGE:      15859
cpu0->cpu0_DTLB RFO          ACCESS:          0 HIT:          0 MISS:          0 MSHR_MERGE:          0
cpu0->cpu0_DTLB PREFETCH     ACCESS:          0 HIT:          0 MISS:          0 MSHR_MERGE:          0
cpu0->cpu0_DTLB WRITE        ACCESS:          0 HIT:          0 MISS:          0 MSHR_MERGE:          0
cpu0->cpu0_DTLB TRANSLATION  ACCESS:          0 HIT:          0 MISS:          0 MSHR_MERGE:          0
cpu0->cpu0_DTLB PREFETCH REQUESTED:          0 ISSUED:          0 USEFUL:          0 USELESS:          0
cpu0->cpu0_DTLB AVERAGE MISS LATENCY: 26.36 cycles
cpu0->LLC TOTAL        ACCESS:    2914150 HIT:     744631 MISS:    2169519 MSHR_MERGE:      57440
cpu0->LLC LOAD         ACCESS:     170919 HIT:      21709 MISS:     149210 MSHR_MERGE:         54
cpu0->LLC RFO          ACCESS:        130 HIT:        100 MISS:         30 MSHR_MERGE:          0
cpu0->LLC PREFETCH     ACCESS:    2659620 HIT:     703606 MISS:    1956014 MSHR_MERGE:      57386
cpu0->LLC WRITE        ACCESS:      80583 HIT:      19209 MISS:      61374 MSHR_MERGE:          0
cpu0->LLC TRANSLATION  ACCESS:       2898 HIT:          7 MISS:       2891 MSHR_MERGE:          0
cpu0->LLC PREFETCH REQUESTED:          0 ISSUED:          0 USEFUL:          0 USELESS:          0
cpu0->LLC AVERAGE MISS LATENCY: 114.1 cycles

DRAM Statistics

Channel 0 RQ ROW_BUFFER_HIT:     220567
  ROW_BUFFER_MISS:    1829667
  AVG DBUS CONGESTED CYCLE: 6.616
Channel 0 WQ ROW_BUFFER_HIT:      11618
  ROW_BUFFER_MISS:      65811
  FULL:          0
Channel 0 REFRESHES ISSUED:       5713
