[VMEM] WARNING: physical memory size is smaller than virtual memory size.
WARNING: option --warmup_instructions is deprecated. Use --warmup-instructions instead.
WARNING: option --simulation_instructions is deprecated. Use --simulation-instructions instead.

*** ChampSim Multicore Out-of-Order Simulator ***
Warmup Instructions: 20000000
Simulation Instructions: 50000000
Number of CPUs: 1
Page size: 8192

Off-chip DRAM Size: 16 GiB Channels: 1 Width: 64-bit Data Rate: 3205 MT/s
Heartbeat CPU 0 instructions: 10000001 cycles: 4631239 heartbeat IPC: 2.159 cumulative IPC: 2.159 (Simulation time: 00 hr 00 min 53 sec)
Heartbeat CPU 0 instructions: 20000002 cycles: 9210490 heartbeat IPC: 2.184 cumulative IPC: 2.171 (Simulation time: 00 hr 01 min 45 sec)
Warmup finished CPU 0 instructions: 20000002 cycles: 9210490 cumulative IPC: 2.171 (Simulation time: 00 hr 01 min 45 sec)
Warmup complete CPU 0 instructions: 20000002 cycles: 9210490 cumulative IPC: 2.171 (Simulation time: 00 hr 01 min 45 sec)
Heartbeat CPU 0 instructions: 30000005 cycles: 38736433 heartbeat IPC: 0.3387 cumulative IPC: 0.3387 (Simulation time: 00 hr 04 min 05 sec)
Heartbeat CPU 0 instructions: 40000005 cycles: 68043070 heartbeat IPC: 0.3412 cumulative IPC: 0.3399 (Simulation time: 00 hr 06 min 22 sec)
Heartbeat CPU 0 instructions: 50000007 cycles: 97801834 heartbeat IPC: 0.336 cumulative IPC: 0.3386 (Simulation time: 00 hr 08 min 44 sec)
Heartbeat CPU 0 instructions: 60000007 cycles: 127452130 heartbeat IPC: 0.3373 cumulative IPC: 0.3383 (Simulation time: 00 hr 11 min 10 sec)
Simulation finished CPU 0 instructions: 50000002 cycles: 148357008 cumulative IPC: 0.337 (Simulation time: 00 hr 13 min 36 sec)
Simulation complete CPU 0 instructions: 50000002 cycles: 148357008 cumulative IPC: 0.337 (Simulation time: 00 hr 13 min 36 sec)

ChampSim completed all CPUs

=== Simulation ===
CPU 0 runs traces/605.mcf_s-1152B.champsimtrace.xz

Region of Interest Statistics

CPU 0 cumulative IPC: 0.337 instructions: 50000002 cycles: 148357008
CPU 0 Branch Prediction Accuracy: 90.19% MPKI: 24.48 Average ROB Occupancy at Mispredict: 21.39
Branch type MPKI
BRANCH_DIRECT_JUMP: 0.2057
BRANCH_INDIRECT: 0
BRANCH_CONDITIONAL: 24.27
BRANCH_DIRECT_CALL: 0
BRANCH_INDIRECT_CALL: 0.0036
BRANCH_RETURN: 2e-05

cpu0->cpu0_STLB TOTAL        ACCESS:    1006152 HIT:    1000395 MISS:       5757 MSHR_MERGE:          0
cpu0->cpu0_STLB LOAD         ACCESS:    1006152 HIT:    1000395 MISS:       5757 MSHR_MERGE:          0
cpu0->cpu0_STLB RFO          ACCESS:          0 HIT:          0 MISS:          0 MSHR_MERGE:          0
cpu0->cpu0_STLB PREFETCH     ACCESS:          0 HIT:          0 MISS:          0 MSHR_MERGE:          0
cpu0->cpu0_STLB WRITE        ACCESS:          0 HIT:          0 MISS:          0 MSHR_MERGE:          0
cpu0->cpu0_STLB TRANSLATION  ACCESS:          0 HIT:          0 MISS:          0 MSHR_MERGE:          0
cpu0->cpu0_STLB PREFETCH REQUESTED:          0 ISSUED:          0 USEFUL:          0 USELESS:          0
cpu0->cpu0_STLB AVERAGE MISS LATENCY: 628.5 cycles
cpu0->cpu0_L2C TOTAL        ACCESS:    9096195 HIT:    3078547 MISS:    6017648 MSHR_MERGE:     260494
cpu0->cpu0_L2C LOAD         ACCESS:    2552744 HIT:    1084076 MISS:    1468668 MSHR_MERGE:      29612
cpu0->cpu0_L2C RFO          ACCESS:     187382 HIT:      24735 MISS:     162647 MSHR_MERGE:          0
cpu0->cpu0_L2C PREFETCH     ACCESS:    6081974 HIT:    1704365 MISS:    4377609 MSHR_MERGE:     230882
cpu0->cpu0_L2C WRITE        ACCESS:     265747 HIT:     263934 MISS:       1813 MSHR_MERGE:          0
cpu0->cpu0_L2C TRANSLATION  ACCESS:       8348 HIT:       1437 MISS:       6911 MSHR_MERGE:          0
cpu0->cpu0_L2C PREFETCH REQUESTED:    6455033 ISSUED:    6081974 USEFUL:     801281 USELESS:    3091699
cpu0->cpu0_L2C AVERAGE MISS LATENCY: 56.65 cycles
cpu0->cpu0_L1I TOTAL        ACCESS:     436656 HIT:     436656 MISS:          0 MSHR_MERGE:          0
cpu0->cpu0_L1I LOAD         ACCESS:     436656 HIT:     436656 MISS:          0 MSHR_MERGE:          0
cpu0->cpu0_L1I RFO          ACCESS:          0 HIT:          0 MISS:          0 MSHR_MERGE:          0
cpu0->cpu0_L1I PREFETCH     ACCESS:          0 HIT:          0 MISS:          0 MSHR_MERGE:          0
cpu0->cpu0_L1I WRITE        ACCESS:          0 HIT:          0 MISS:          0 MSHR_MERGE:          0
cpu0->cpu0_L1I TRANSLATION  ACCESS:          0 HIT:          0 MISS:          0 MSHR_MERGE:          0
cpu0->cpu0_L1I PREFETCH REQUESTED:          0 ISSUED:          0 USEFUL:          0 USELESS:          0
cpu0->cpu0_L1I AVERAGE MISS LATENCY: - cycles
cpu0->cpu0_L1D TOTAL        ACCESS:   17982681 HIT:   14383691 MISS:    3598990 MSHR_MERGE:     850512
cpu0->cpu0_L1D LOAD         ACCESS:   12806702 HIT:    9726240 MISS:    3080462 MSHR_MERGE:     527718
cpu0->cpu0_L1D RFO          ACCESS:          0 HIT:          0 MISS:          0 MSHR_MERGE:          0
cpu0->cpu0_L1D PREFETCH     ACCESS:          0 HIT:          0 MISS:          0 MSHR_MERGE:          0
cpu0->cpu0_L1D WRITE        ACCESS:    5164369 HIT:    4654189 MISS:     510180 MSHR_MERGE:     322794
cpu0->cpu0_L1D TRANSLATION  ACCESS:      11610 HIT:       3262 MISS:       8348 MSHR_MERGE:          0
cpu0->cpu0_L1D PREFETCH REQUESTED:          0 ISSUED:          0 USEFUL:          0 USELESS:          0
cpu0->cpu0_L1D AVERAGE MISS LATENCY: 42.81 cycles
cpu0->cpu0_ITLB TOTAL        ACCESS:     405043 HIT:     405043 MISS:          0 MSHR_MERGE:          0
cpu0->cpu0_ITLB LOAD         ACCESS:     405043 HIT:     405043 MISS:          0 MSHR_MERGE:          0
cpu0->cpu0_ITLB RFO          ACCESS:          0 HIT:          0 MISS:          0 MSHR_MERGE:          0
cpu0->cpu0_ITLB PREFETCH     ACCESS:          0 HIT:          0 MISS:          0 MSHR_MERGE:          0
cpu0->cpu0_ITLB WRITE        ACCESS:          0 HIT:          0 MISS:          0 MSHR_MERGE:          0
cpu0->cpu0_ITLB TRANSLATION  ACCESS:          0 HIT:          0 MISS:          0 MSHR_MERGE:          0
cpu0->cpu0_ITLB PREFETCH REQUESTED:          0 ISSUED:          0 USEFUL:          0 USELESS:          0
cpu0->cpu0_ITLB AVERAGE MISS LATENCY: - cycles
cpu0->cpu0_DTLB TOTAL        ACCESS:   16841878 HIT:   15647837 MISS:    1194041 MSHR_MERGE:     187889
cpu0->cpu0_DTLB LOAD         ACCESS:   16841878 HIT:   15647837 MISS:    1194041 MSHR_MERGE:     187889
cpu0->cpu0_DTLB RFO          ACCESS:          0 HIT:          0 MISS:          0 MSHR_MERGE:          0
cpu0->cpu0_DTLB PREFETCH     ACCESS:          0 HIT:          0 MISS:          0 MSHR_MERGE:          0
cpu0->cpu0_DTLB WRITE        ACCESS:          0 HIT:          0 MISS:          0 MSHR_MERGE:          0
cpu0->cpu0_DTLB TRANSLATION  ACCESS:          0 HIT:          0 MISS:          0 MSHR_MERGE:          0
cpu0->cpu0_DTLB PREFETCH REQUESTED:          0 ISSUED:          0 USEFUL:          0 USELESS:          0
cpu0->cpu0_DTLB AVERAGE MISS LATENCY: 7.602 cycles
cpu0->LLC TOTAL        ACCESS:    5976278 HIT:    3623757 MISS:    2352521 MSHR_MERGE:      44414
cpu0->LLC LOAD         ACCESS:    1439056 HIT:    1039462 MISS:     399594 MSHR_MERGE:        236
cpu0->LLC RFO          ACCESS:     162647 HIT:     150013 MISS:      12634 MSHR_MERGE:          0
cpu0->LLC PREFETCH     ACCESS:    4146726 HIT:    2226455 MISS:    1920271 MSHR_MERGE:      44178
cpu0->LLC WRITE        ACCESS:     220938 HIT:     207783 MISS:      13155 MSHR_MERGE:          0
cpu0->LLC TRANSLATION  ACCESS:       6911 HIT:         44 MISS:       6867 MSHR_MERGE:          0
cpu0->LLC PREFETCH REQUESTED:          0 ISSUED:          0 USEFUL:          0 USELESS:          0
cpu0->LLC AVERAGE MISS LATENCY: 148.5 cycles

DRAM Statistics

Channel 0 RQ ROW_BUFFER_HIT:      90383
  ROW_BUFFER_MISS:    2204447
  AVG DBUS CONGESTED CYCLE: 13.33
Channel 0 WQ ROW_BUFFER_HIT:       5024
  ROW_BUFFER_MISS:      15934
  FULL:          0
Channel 0 REFRESHES ISSUED:      12363
