[VMEM] WARNING: physical memory size is smaller than virtual memory size.
WARNING: option --warmup_instructions is deprecated. Use --warmup-instructions instead.
WARNING: option --simulation_instructions is deprecated. Use --simulation-instructions instead.

*** ChampSim Multicore Out-of-Order Simulator ***
Warmup Instructions: 20000000
Simulation Instructions: 50000000
Number of CPUs: 1
Page size: 8192

Off-chip DRAM Size: 16 GiB Channels: 1 Width: 64-bit Data Rate: 3205 MT/s
Heartbeat CPU 0 instructions: 10000000 cycles: 3011171 heartbeat IPC: 3.321 cumulative IPC: 3.321 (Simulation time: 00 hr 00 min 32 sec)
Heartbeat CPU 0 instructions: 20000000 cycles: 5975423 heartbeat IPC: 3.374 cumulative IPC: 3.347 (Simulation time: 00 hr 01 min 05 sec)
Warmup finished CPU 0 instructions: 20000000 cycles: 5975423 cumulative IPC: 3.347 (Simulation time: 00 hr 01 min 05 sec)
Warmup complete CPU 0 instructions: 20000000 cycles: 5975423 cumulative IPC: 3.347 (Simulation time: 00 hr 01 min 05 sec)
Heartbeat CPU 0 instructions: 30000002 cycles: 21699475 heartbeat IPC: 0.636 cumulative IPC: 0.636 (Simulation time: 00 hr 03 min 08 sec)
Heartbeat CPU 0 instructions: 40000005 cycles: 37475088 heartbeat IPC: 0.6339 cumulative IPC: 0.6349 (Simulation time: 00 hr 05 min 13 sec)
Heartbeat CPU 0 instructions: 50000005 cycles: 53205569 heartbeat IPC: 0.6357 cumulative IPC: 0.6352 (Simulation time: 00 hr 07 min 16 sec)
Heartbeat CPU 0 instructions: 60000008 cycles: 68942742 heartbeat IPC: 0.6354 cumulative IPC: 0.6353 (Simulation time: 00 hr 09 min 18 sec)
Simulation finished CPU 0 instructions: 50000002 cycles: 78704262 cumulative IPC: 0.6353 (Simulation time: 00 hr 11 min 20 sec)
Simulation complete CPU 0 instructions: 50000002 cycles: 78704262 cumulative IPC: 0.6353 (Simulation time: 00 hr 11 min 20 sec)

ChampSim completed all CPUs

=== Simulation ===
CPU 0 runs traces/470.lbm-1274B.champsimtrace.xz

Region of Interest Statistics

CPU 0 cumulative IPC: 0.6353 instructions: 50000002 cycles: 78704262
CPU 0 Branch Prediction Accuracy: 99.79% MPKI: 0.02864 Average ROB Occupancy at Mispredict: 189.9
Branch type MPKI
BRANCH_DIRECT_JUMP: 0
BRANCH_INDIRECT: 0
BRANCH_CONDITIONAL: 0.02864
BRANCH_DIRECT_CALL: 0
BRANCH_INDIRECT_CALL: 0
BRANCH_RETURN: 0

cpu0->cpu0_STLB TOTAL        ACCESS:      11115 HIT:       5557 MISS:       5558 MSHR_MERGE:          0
cpu0->cpu0_STLB LOAD         ACCESS:      11115 HIT:       5557 MISS:       5558 MSHR_MERGE:          0
cpu0->cpu0_STLB RFO          ACCESS:          0 HIT:          0 MISS:          0 MSHR_MERGE:          0
cpu0->cpu0_STLB PREFETCH     ACCESS:          0 HIT:          0 MISS:          0 MSHR_MERGE:          0
cpu0->cpu0_STLB WRITE        ACCESS:          0 HIT:          0 MISS:          0 MSHR_MERGE:          0
cpu0->cpu0_STLB TRANSLATION  ACCESS:          0 HIT:          0 MISS:          0 MSHR_MERGE:          0
cpu0->cpu0_STLB PREFETCH REQUESTED:          0 ISSUED:          0 USEFUL:          0 USELESS:          0
cpu0->cpu0_STLB AVERAGE MISS LATENCY: 970.2 cycles
cpu0->cpu0_L2C TOTAL        ACCESS:    4372345 HIT:    2931089 MISS:    1441256 MSHR_MERGE:          0
cpu0->cpu0_L2C LOAD         ACCESS:     355730 HIT:          0 MISS:     355730 MSHR_MERGE:          0
cpu0->cpu0_L2C RFO          ACCESS:    2002722 HIT:     925895 MISS:    1076827 MSHR_MERGE:          0
cpu0->cpu0_L2C PREFETCH     ACCESS:          0 HIT:          0 MISS:          0 MSHR_MERGE:          0
cpu0->cpu0_L2C WRITE        ACCESS:    2002765 HIT:    2002750 MISS:         15 MSHR_MERGE:          0
cpu0->cpu0_L2C TRANSLATION  ACCESS:      11128 HIT:       2444 MISS:       8684 MSHR_MERGE:          0
cpu0->cpu0_L2C PREFETCH REQUESTED:          0 ISSUED:          0 USEFUL:          0 USELESS:          0
cpu0->cpu0_L2C AVERAGE MISS LATENCY: 291.3 cycles
cpu0->cpu0_L1I TOTAL        ACCESS:    8545587 HIT:    8545587 MISS:          0 MSHR_MERGE:          0
cpu0->cpu0_L1I LOAD         ACCESS:    8545587 HIT:    8545587 MISS:          0 MSHR_MERGE:          0
cpu0->cpu0_L1I RFO          ACCESS:          0 HIT:          0 MISS:          0 MSHR_MERGE:          0
cpu0->cpu0_L1I PREFETCH     ACCESS:          0 HIT:          0 MISS:          0 MSHR_MERGE:          0
cpu0->cpu0_L1I WRITE        ACCESS:          0 HIT:          0 MISS:          0 MSHR_MERGE:          0
cpu0->cpu0_L1I TRANSLATION  ACCESS:          0 HIT:          0 MISS:          0 MSHR_MERGE:          0
cpu0->cpu0_L1I PREFETCH REQUESTED:          0 ISSUED:          0 USEFUL:          0 USELESS:          0
cpu0->cpu0_L1I AVERAGE MISS LATENCY: - cycles
cpu0->cpu0_L1D TOTAL        ACCESS:    7281468 HIT:    4835110 MISS:    2446358 MSHR_MERGE:      76735
cpu0->cpu0_L1D LOAD         ACCESS:    2246821 HIT:    1835365 MISS:     411456 MSHR_MERGE:      55726
cpu0->cpu0_L1D RFO          ACCESS:          0 HIT:          0 MISS:          0 MSHR_MERGE:          0
cpu0->cpu0_L1D PREFETCH     ACCESS:          0 HIT:          0 MISS:          0 MSHR_MERGE:          0
cpu0->cpu0_L1D WRITE        ACCESS:    5023519 HIT:    2999745 MISS:    2023774 MSHR_MERGE:      21009
cpu0->cpu0_L1D TRANSLATION  ACCESS:      11128 HIT:          0 MISS:      11128 MSHR_MERGE:          0
cpu0->cpu0_L1D PREFETCH REQUESTED:          0 ISSUED:          0 USEFUL:          0 USELESS:          0
cpu0->cpu0_L1D AVERAGE MISS LATENCY: 186.3 cycles
cpu0->cpu0_ITLB TOTAL        ACCESS:    7108263 HIT:    7108263 MISS:          0 MSHR_MERGE:          0
cpu0->cpu0_ITLB LOAD         ACCESS:    7108263 HIT:    7108263 MISS:          0 MSHR_MERGE:          0
cpu0->cpu0_ITLB RFO          ACCESS:          0 HIT:          0 MISS:          0 MSHR_MERGE:          0
cpu0->cpu0_ITLB PREFETCH     ACCESS:          0 HIT:          0 MISS:          0 MSHR_MERGE:          0
cpu0->cpu0_ITLB WRITE        ACCESS:          0 HIT:          0 MISS:          0 MSHR_MERGE:          0
cpu0->cpu0_ITLB TRANSLATION  ACCESS:          0 HIT:          0 MISS:          0 MSHR_MERGE:          0
cpu0->cpu0_ITLB PREFETCH REQUESTED:          0 ISSUED:          0 USEFUL:          0 USELESS:          0
cpu0->cpu0_ITLB AVERAGE MISS LATENCY: - cycles
cpu0->cpu0_DTLB TOTAL        ACCESS:    6839839 HIT:    6820201 MISS:      19638 MSHR_MERGE:       8523
cpu0->cpu0_DTLB LOAD         ACCESS:    6839839 HIT:    6820201 MISS:      19638 MSHR_MERGE:       8523
cpu0->cpu0_DTLB RFO          ACCESS:          0 HIT:          0 MISS:          0 MSHR_MERGE:          0
cpu0->cpu0_DTLB PREFETCH     ACCESS:          0 HIT:          0 MISS:          0 MSHR_MERGE:          0
cpu0->cpu0_DTLB WRITE        ACCESS:          0 HIT:          0 MISS:          0 MSHR_MERGE:          0
cpu0->cpu0_DTLB TRANSLATION  ACCESS:          0 HIT:          0 MISS:          0 MSHR_MERGE:          0
cpu0->cpu0_DTLB PREFETCH REQUESTED:          0 ISSUED:          0 USEFUL:          0 USELESS:          0
cpu0->cpu0_DTLB AVERAGE MISS LATENCY: 489.6 cycles
cpu0->LLC TOTAL        ACCESS:    2518390 HIT:      66556 MISS:    2451834 MSHR_MERGE:          0
cpu0->LLC LOAD         ACCESS:     355730 HIT:          0 MISS:     355730 MSHR_MERGE:          0
cpu0->LLC RFO          ACCESS:    1076827 HIT:      19289 MISS:    1057538 MSHR_MERGE:          0
cpu0->LLC PREFETCH     ACCESS:          0 HIT:          0 MISS:          0 MSHR_MERGE:          0
cpu0->LLC WRITE        ACCESS:    1077149 HIT:      47267 MISS:    1029882 MSHR_MERGE:          0
cpu0->LLC TRANSLATION  ACCESS:       8684 HIT:          0 MISS:       8684 MSHR_MERGE:          0
cpu0->LLC PREFETCH REQUESTED:          0 ISSUED:          0 USEFUL:          0 USELESS:          0
cpu0->LLC AVERAGE MISS LATENCY: 165 cycles

DRAM Statistics

Channel 0 RQ ROW_BUFFER_HIT:      15557
  ROW_BUFFER_MISS:    1406328
  AVG DBUS CONGESTED CYCLE: 12.86
Channel 0 WQ ROW_BUFFER_HIT:     172403
  ROW_BUFFER_MISS:     882195
  FULL:          0
Channel 0 REFRESHES ISSUED:       6559
