[VMEM] WARNING: physical memory size is smaller than virtual memory size.
WARNING: option --warmup_instructions is deprecated. Use --warmup-instructions instead.
WARNING: option --simulation_instructions is deprecated. Use --simulation-instructions instead.

*** ChampSim Multicore Out-of-Order Simulator ***
Warmup Instructions: 20000000
Simulation Instructions: 50000000
Number of CPUs: 1
Page size: 8192

Off-chip DRAM Size: 16 GiB Channels: 1 Width: 64-bit Data Rate: 3205 MT/s
Heartbeat CPU 0 instructions: 10000000 cycles: 8288885 heartbeat IPC: 1.206 cumulative IPC: 1.206 (Simulation time: 00 hr 01 min 16 sec)
Heartbeat CPU 0 instructions: 20000000 cycles: 15325626 heartbeat IPC: 1.421 cumulative IPC: 1.305 (Simulation time: 00 hr 02 min 24 sec)
Warmup finished CPU 0 instructions: 20000000 cycles: 15325626 cumulative IPC: 1.305 (Simulation time: 00 hr 02 min 24 sec)
Warmup complete CPU 0 instructions: 20000000 cycles: 15325626 cumulative IPC: 1.305 (Simulation time: 00 hr 02 min 24 sec)
Heartbeat CPU 0 instructions: 30000002 cycles: 44536362 heartbeat IPC: 0.3423 cumulative IPC: 0.3423 (Simulation time: 00 hr 05 min 05 sec)
Heartbeat CPU 0 instructions: 40000004 cycles: 74016910 heartbeat IPC: 0.3392 cumulative IPC: 0.3408 (Simulation time: 00 hr 07 min 51 sec)
Heartbeat CPU 0 instructions: 50000004 cycles: 103396136 heartbeat IPC: 0.3404 cumulative IPC: 0.3406 (Simulation time: 00 hr 10 min 36 sec)
Heartbeat CPU 0 instructions: 60000007 cycles: 131109198 heartbeat IPC: 0.3608 cumulative IPC: 0.3455 (Simulation time: 00 hr 13 min 14 sec)
Simulation finished CPU 0 instructions: 50000001 cycles: 142723618 cumulative IPC: 0.3503 (Simulation time: 00 hr 15 min 47 sec)
Simulation complete CPU 0 instructions: 50000001 cycles: 142723618 cumulative IPC: 0.3503 (Simulation time: 00 hr 15 min 47 sec)

ChampSim completed all CPUs

=== Simulation ===
CPU 0 runs traces/620.omnetpp_s-874B.champsimtrace.xz

Region of Interest Statistics

CPU 0 cumulative IPC: 0.3503 instructions: 50000001 cycles: 142723618
CPU 0 Branch Prediction Accuracy: 96.16% MPKI: 7.99 Average ROB Occupancy at Mispredict: 59.22
Branch type MPKI
BRANCH_DIRECT_JUMP: 0.9384
BRANCH_INDIRECT: 0.1208
BRANCH_CONDITIONAL: 5.805
BRANCH_DIRECT_CALL: 0.00236
BRANCH_INDIRECT_CALL: 0.7298
BRANCH_RETURN: 0.3936

cpu0->cpu0_STLB TOTAL        ACCESS:     828641 HIT:     691547 MISS:     137094 MSHR_MERGE:          0
cpu0->cpu0_STLB LOAD         ACCESS:     828641 HIT:     691547 MISS:     137094 MSHR_MERGE:          0
cpu0->cpu0_STLB RFO          ACCESS:          0 HIT:          0 MISS:          0 MSHR_MERGE:          0
cpu0->cpu0_STLB PREFETCH     ACCESS:          0 HIT:          0 MISS:          0 MSHR_MERGE:          0
cpu0->cpu0_STLB WRITE        ACCESS:          0 HIT:          0 MISS:          0 MSHR_MERGE:          0
cpu0->cpu0_STLB TRANSLATION  ACCESS:          0 HIT:          0 MISS:          0 MSHR_MERGE:          0
cpu0->cpu0_STLB PREFETCH REQUESTED:          0 ISSUED:          0 USEFUL:          0 USELESS:          0
cpu0->cpu0_STLB AVERAGE MISS LATENCY: 323.5 cycles
cpu0->cpu0_L2C TOTAL        ACCESS:    1873515 HIT:     840032 MISS:    1033483 MSHR_MERGE:          0
cpu0->cpu0_L2C LOAD         ACCESS:     933911 HIT:     279212 MISS:     654699 MSHR_MERGE:          0
cpu0->cpu0_L2C RFO          ACCESS:     139150 HIT:      32569 MISS:     106581 MSHR_MERGE:          0
cpu0->cpu0_L2C PREFETCH     ACCESS:          0 HIT:          0 MISS:          0 MSHR_MERGE:          0
cpu0->cpu0_L2C WRITE        ACCESS:     506835 HIT:     504576 MISS:       2259 MSHR_MERGE:          0
cpu0->cpu0_L2C TRANSLATION  ACCESS:     293619 HIT:      23675 MISS:     269944 MSHR_MERGE:          0
cpu0->cpu0_L2C PREFETCH REQUESTED:          0 ISSUED:          0 USEFUL:          0 USELESS:          0
cpu0->cpu0_L2C AVERAGE MISS LATENCY: 137.8 cycles
cpu0->cpu0_L1I TOTAL        ACCESS:    7920112 HIT:    7895008 MISS:      25104 MSHR_MERGE:       6612
cpu0->cpu0_L1I LOAD         ACCESS:    7920112 HIT:    7895008 MISS:      25104 MSHR_MERGE:       6612
cpu0->cpu0_L1I RFO          ACCESS:          0 HIT:          0 MISS:          0 MSHR_MERGE:          0
cpu0->cpu0_L1I PREFETCH     ACCESS:          0 HIT:          0 MISS:          0 MSHR_MERGE:          0
cpu0->cpu0_L1I WRITE        ACCESS:          0 HIT:          0 MISS:          0 MSHR_MERGE:          0
cpu0->cpu0_L1I TRANSLATION  ACCESS:          0 HIT:          0 MISS:          0 MSHR_MERGE:          0
cpu0->cpu0_L1I PREFETCH REQUESTED:          0 ISSUED:          0 USEFUL:          0 USELESS:          0
cpu0->cpu0_L1I AVERAGE MISS LATENCY: 27.26 cycles
cpu0->cpu0_L1D TOTAL        ACCESS:   18755896 HIT:   16945689 MISS:    1810207 MSHR_MERGE:     462010
cpu0->cpu0_L1D LOAD         ACCESS:    9417358 HIT:    8289258 MISS:    1128100 MSHR_MERGE:     212678
cpu0->cpu0_L1D RFO          ACCESS:          0 HIT:          0 MISS:          0 MSHR_MERGE:          0
cpu0->cpu0_L1D PREFETCH     ACCESS:          0 HIT:          0 MISS:          0 MSHR_MERGE:          0
cpu0->cpu0_L1D WRITE        ACCESS:    9037274 HIT:    8649091 MISS:     388183 MSHR_MERGE:     249027
cpu0->cpu0_L1D TRANSLATION  ACCESS:     301264 HIT:       7340 MISS:     293924 MSHR_MERGE:        305
cpu0->cpu0_L1D PREFETCH REQUESTED:          0 ISSUED:          0 USEFUL:          0 USELESS:          0
cpu0->cpu0_L1D AVERAGE MISS LATENCY: 114.1 cycles
cpu0->cpu0_ITLB TOTAL        ACCESS:    7261752 HIT:    7261548 MISS:        204 MSHR_MERGE:        100
cpu0->cpu0_ITLB LOAD         ACCESS:    7261752 HIT:    7261548 MISS:        204 MSHR_MERGE:        100
cpu0->cpu0_ITLB RFO          ACCESS:          0 HIT:          0 MISS:          0 MSHR_MERGE:          0
cpu0->cpu0_ITLB PREFETCH     ACCESS:          0 HIT:          0 MISS:          0 MSHR_MERGE:          0
cpu0->cpu0_ITLB WRITE        ACCESS:          0 HIT:          0 MISS:          0 MSHR_MERGE:          0
cpu0->cpu0_ITLB TRANSLATION  ACCESS:          0 HIT:          0 MISS:          0 MSHR_MERGE:          0
cpu0->cpu0_ITLB PREFETCH REQUESTED:          0 ISSUED:          0 USEFUL:          0 USELESS:          0
cpu0->cpu0_ITLB AVERAGE MISS LATENCY: 196.8 cycles
cpu0->cpu0_DTLB TOTAL        ACCESS:   17194992 HIT:   16244647 MISS:     950345 MSHR_MERGE:     121807
cpu0->cpu0_DTLB LOAD         ACCESS:   17194992 HIT:   16244647 MISS:     950345 MSHR_MERGE:     121807
cpu0->cpu0_DTLB RFO          ACCESS:          0 HIT:          0 MISS:          0 MSHR_MERGE:          0
cpu0->cpu0_DTLB PREFETCH     ACCESS:          0 HIT:          0 MISS:          0 MSHR_MERGE:          0
cpu0->cpu0_DTLB WRITE        ACCESS:          0 HIT:          0 MISS:          0 MSHR_MERGE:          0
cpu0->cpu0_DTLB TRANSLATION  ACCESS:          0 HIT:          0 MISS:          0 MSHR_MERGE:          0
cpu0->cpu0_DTLB PREFETCH REQUESTED:          0 ISSUED:          0 USEFUL:          0 USELESS:          0
cpu0->cpu0_DTLB AVERAGE MISS LATENCY: 57.66 cycles
cpu0->LLC TOTAL        ACCESS:    1410880 HIT:     336491 MISS:    1074389 MSHR_MERGE:          0
cpu0->LLC LOAD         ACCESS:     654699 HIT:     129862 MISS:     524837 MSHR_MERGE:          0
cpu0->LLC RFO          ACCESS:     106581 HIT:      23504 MISS:      83077 MSHR_MERGE:          0
cpu0->LLC PREFETCH     ACCESS:          0 HIT:          0 MISS:          0 MSHR_MERGE:          0
cpu0->LLC WRITE        ACCESS:     379656 HIT:     126360 MISS:     253296 MSHR_MERGE:          0
cpu0->LLC TRANSLATION  ACCESS:     269944 HIT:      56765 MISS:     213179 MSHR_MERGE:          0
cpu0->LLC PREFETCH REQUESTED:          0 ISSUED:          0 USEFUL:          0 USELESS:          0
cpu0->LLC AVERAGE MISS LATENCY: 118.5 cycles

DRAM Statistics

Channel 0 RQ ROW_BUFFER_HIT:      13230
  ROW_BUFFER_MISS:     807822
  AVG DBUS CONGESTED CYCLE: 23.72
Channel 0 WQ ROW_BUFFER_HIT:      74759
  ROW_BUFFER_MISS:     203879
  FULL:          0
Channel 0 REFRESHES ISSUED:      11893
