[VMEM] WARNING: physical memory size is smaller than virtual memory size.
WARNING: option --warmup_instructions is deprecated. Use --warmup-instructions instead.
WARNING: option --simulation_instructions is deprecated. Use --simulation-instructions instead.

*** ChampSim Multicore Out-of-Order Simulator ***
Warmup Instructions: 20000000
Simulation Instructions: 50000000
Number of CPUs: 1
Page size: 8192

Off-chip DRAM Size: 16 GiB Channels: 1 Width: 64-bit Data Rate: 3205 MT/s
Heartbeat CPU 0 instructions: 10000000 cycles: 4234054 heartbeat IPC: 2.362 cumulative IPC: 2.362 (Simulation time: 00 hr 00 min 52 sec)
Heartbeat CPU 0 instructions: 20000000 cycles: 8458316 heartbeat IPC: 2.367 cumulative IPC: 2.365 (Simulation time: 00 hr 01 min 43 sec)
Warmup finished CPU 0 instructions: 20000000 cycles: 8458316 cumulative IPC: 2.365 (Simulation time: 00 hr 01 min 43 sec)
Warmup complete CPU 0 instructions: 20000000 cycles: 8458316 cumulative IPC: 2.365 (Simulation time: 00 hr 01 min 43 sec)
Heartbeat CPU 0 instructions: 30000002 cycles: 17334751 heartbeat IPC: 1.127 cumulative IPC: 1.127 (Simulation time: 00 hr 03 min 04 sec)
Heartbeat CPU 0 instructions: 40000003 cycles: 26217949 heartbeat IPC: 1.126 cumulative IPC: 1.126 (Simulation time: 00 hr 04 min 25 sec)
Heartbeat CPU 0 instructions: 50000003 cycles: 35089417 heartbeat IPC: 1.127 cumulative IPC: 1.127 (Simulation time: 00 hr 05 min 47 sec)
Heartbeat CPU 0 instructions: 60000006 cycles: 43986722 heartbeat IPC: 1.124 cumulative IPC: 1.126 (Simulation time: 00 hr 07 min 08 sec)
Simulation finished CPU 0 instructions: 50000000 cycles: 44430588 cumulative IPC: 1.125 (Simulation time: 00 hr 08 min 30 sec)
Simulation complete CPU 0 instructions: 50000000 cycles: 44430588 cumulative IPC: 1.125 (Simulation time: 00 hr 08 min 30 sec)

ChampSim completed all CPUs

=== Simulation ===
CPU 0 runs traces/603.bwaves_s-1740B.champsimtrace.xz

Region of Interest Statistics

CPU 0 cumulative IPC: 1.125 instructions: 50000000 cycles: 44430588
CPU 0 Branch Prediction Accuracy: 99.97% MPKI: 0.00734 Average ROB Occupancy at Mispredict: 195.5
Branch type MPKI
BRANCH_DIRECT_JUMP: 0
BRANCH_INDIRECT: 0
BRANCH_CONDITIONAL: 0.00734
BRANCH_DIRECT_CALL: 0
BRANCH_INDIRECT_CALL: 0
BRANCH_RETURN: 0

cpu0->cpu0_STLB TOTAL        ACCESS:       7425 HIT:        365 MISS:       7060 MSHR_MERGE:          0
cpu0->cpu0_STLB LOAD         ACCESS:       7425 HIT:        365 MISS:       7060 MSHR_MERGE:          0
cpu0->cpu0_STLB RFO          ACCESS:          0 HIT:          0 MISS:          0 MSHR_MERGE:          0
cpu0->cpu0_STLB PREFETCH     ACCESS:          0 HIT:          0 MISS:          0 MSHR_MERGE:          0
cpu0->cpu0_STLB WRITE        ACCESS:          0 HIT:          0 MISS:          0 MSHR_MERGE:          0
cpu0->cpu0_STLB TRANSLATION  ACCESS:          0 HIT:          0 MISS:          0 MSHR_MERGE:          0
cpu0->cpu0_STLB PREFETCH REQUESTED:          0 ISSUED:          0 USEFUL:          0 USELESS:          0
cpu0->cpu0_STLB AVERAGE MISS LATENCY: 721.6 cycles
cpu0->cpu0_L2C TOTAL        ACCESS:    3415916 HIT:    2041914 MISS:    1374002 MSHR_MERGE:     383390
cpu0->cpu0_L2C LOAD         ACCESS:    1018742 HIT:     886848 MISS:     131894 MSHR_MERGE:     108175
cpu0->cpu0_L2C RFO          ACCESS:      32801 HIT:       8439 MISS:      24362 MSHR_MERGE:          0
cpu0->cpu0_L2C PREFETCH     ACCESS:    2314332 HIT:    1107271 MISS:    1207061 MSHR_MERGE:     275215
cpu0->cpu0_L2C WRITE        ACCESS:      36497 HIT:      36236 MISS:        261 MSHR_MERGE:          0
cpu0->cpu0_L2C TRANSLATION  ACCESS:      13544 HIT:       3120 MISS:      10424 MSHR_MERGE:          0
cpu0->cpu0_L2C PREFETCH REQUESTED:    2518627 ISSUED:    2314318 USEFUL:     909468 USELESS:      22366
cpu0->cpu0_L2C AVERAGE MISS LATENCY: 132.2 cycles
cpu0->cpu0_L1I TOTAL        ACCESS:   13799230 HIT:   13799230 MISS:          0 MSHR_MERGE:          0
cpu0->cpu0_L1I LOAD         ACCESS:   13799230 HIT:   13799230 MISS:          0 MSHR_MERGE:          0
cpu0->cpu0_L1I RFO          ACCESS:          0 HIT:          0 MISS:          0 MSHR_MERGE:          0
cpu0->cpu0_L1I PREFETCH     ACCESS:          0 HIT:          0 MISS:          0 MSHR_MERGE:          0
cpu0->cpu0_L1I WRITE        ACCESS:          0 HIT:          0 MISS:          0 MSHR_MERGE:          0
cpu0->cpu0_L1I TRANSLATION  ACCESS:          0 HIT:          0 MISS:          0 MSHR_MERGE:          0
cpu0->cpu0_L1I PREFETCH REQUESTED:          0 ISSUED:          0 USEFUL:          0 USELESS:          0
cpu0->cpu0_L1I AVERAGE MISS LATENCY: - cycles
cpu0->cpu0_L1D TOTAL        ACCESS:   17147163 HIT:   15992357 MISS:    1154806 MSHR_MERGE:      89580
cpu0->cpu0_L1D LOAD         ACCESS:   14316425 HIT:   13230292 MISS:    1086133 MSHR_MERGE:      67315
cpu0->cpu0_L1D RFO          ACCESS:          0 HIT:          0 MISS:          0 MSHR_MERGE:          0
cpu0->cpu0_L1D PREFETCH     ACCESS:          0 HIT:          0 MISS:          0 MSHR_MERGE:          0
cpu0->cpu0_L1D WRITE        ACCESS:    2816697 HIT:    2761800 MISS:      54897 MSHR_MERGE:      22033
cpu0->cpu0_L1D TRANSLATION  ACCESS:      14041 HIT:        265 MISS:      13776 MSHR_MERGE:        232
cpu0->cpu0_L1D PREFETCH REQUESTED:          0 ISSUED:          0 USEFUL:          0 USELESS:          0
cpu0->cpu0_L1D AVERAGE MISS LATENCY: 41.34 cycles
cpu0->cpu0_ITLB TOTAL        ACCESS:   12640675 HIT:   12640675 MISS:          0 MSHR_MERGE:          0
cpu0->cpu0_ITLB LOAD         ACCESS:   12640675 HIT:   12640675 MISS:          0 MSHR_MERGE:          0
cpu0->cpu0_ITLB RFO          ACCESS:          0 HIT:          0 MISS:          0 MSHR_MERGE:          0
cpu0->cpu0_ITLB PREFETCH     ACCESS:          0 HIT:          0 MISS:          0 MSHR_MERGE:          0
cpu0->cpu0_ITLB WRITE        ACCESS:          0 HIT:          0 MISS:          0 MSHR_MERGE:          0
cpu0->cpu0_ITLB TRANSLATION  ACCESS:          0 HIT:          0 MISS:          0 MSHR_MERGE:          0
cpu0->cpu0_ITLB PREFETCH REQUESTED:          0 ISSUED:          0 USEFUL:          0 USELESS:          0
cpu0->cpu0_ITLB AVERAGE MISS LATENCY: - cycles
cpu0->cpu0_DTLB TOTAL        ACCESS:   16504659 HIT:   16492074 MISS:      12585 MSHR_MERGE:       5160
cpu0->cpu0_DTLB LOAD         ACCESS:   16504659 HIT:   16492074 MISS:      12585 MSHR_MERGE:       5160
cpu0->cpu0_DTLB RFO          ACCESS:          0 HIT:          0 MISS:          0 MSHR_MERGE:          0
cpu0->cpu0_DTLB PREFETCH     ACCESS:          0 HIT:          0 MISS:          0 MSHR_MERGE:          0
cpu0->cpu0_DTLB WRITE        ACCESS:          0 HIT:          0 MISS:          0 MSHR_MERGE:          0
cpu0->cpu0_DTLB TRANSLATION  ACCESS:          0 HIT:          0 MISS:          0 MSHR_MERGE:          0
cpu0->cpu0_DTLB PREFETCH REQUESTED:          0 ISSUED:          0 USEFUL:          0 USELESS:          0
cpu0->cpu0_DTLB AVERAGE MISS LATENCY: 691.1 cycles
cpu0->LLC TOTAL        ACCESS:    1015037 HIT:       4498 MISS:    1010539 MSHR_MERGE:          0
cpu0->LLC LOAD         ACCESS:      23719 HIT:        301 MISS:      23418 MSHR_MERGE:          0
cpu0->LLC RFO          ACCESS:      24362 HIT:          0 MISS:      24362 MSHR_MERGE:          0
cpu0->LLC PREFETCH     ACCESS:     931846 HIT:       1459 MISS:     930387 MSHR_MERGE:          0
cpu0->LLC WRITE        ACCESS:      24686 HIT:       2730 MISS:      21956 MSHR_MERGE:          0
cpu0->LLC TRANSLATION  ACCESS:      10424 HIT:          8 MISS:      10416 MSHR_MERGE:          0
cpu0->LLC PREFETCH REQUESTED:          0 ISSUED:          0 USEFUL:          0 USELESS:          0
cpu0->LLC AVERAGE MISS LATENCY: 123 cycles

DRAM Statistics

Channel 0 RQ ROW_BUFFER_HIT:        990
  ROW_BUFFER_MISS:     987593
  AVG DBUS CONGESTED CYCLE: 4.341
Channel 0 WQ ROW_BUFFER_HIT:       2735
  ROW_BUFFER_MISS:      21612
  FULL:          0
Channel 0 REFRESHES ISSUED:       3703
