[VMEM] WARNING: physical memory size is smaller than virtual memory size.
WARNING: option --warmup_instructions is deprecated. Use --warmup-instructions instead.
WARNING: option --simulation_instructions is deprecated. Use --simulation-instructions instead.

*** ChampSim Multicore Out-of-Order Simulator ***
Warmup Instructions: 20000000
Simulation Instructions: 50000000
Number of CPUs: 1
Page size: 8192

Off-chip DRAM Size: 16 GiB Channels: 1 Width: 64-bit Data Rate: 3205 MT/s
Heartbeat CPU 0 instructions: 10000000 cycles: 7361895 heartbeat IPC: 1.358 cumulative IPC: 1.358 (Simulation time: 00 hr 01 min 04 sec)
Heartbeat CPU 0 instructions: 20000001 cycles: 11842758 heartbeat IPC: 2.232 cumulative IPC: 1.689 (Simulation time: 00 hr 01 min 53 sec)
Warmup finished CPU 0 instructions: 20000001 cycles: 11842758 cumulative IPC: 1.689 (Simulation time: 00 hr 01 min 53 sec)
Warmup complete CPU 0 instructions: 20000001 cycles: 11842758 cumulative IPC: 1.689 (Simulation time: 00 hr 01 min 53 sec)
Heartbeat CPU 0 instructions: 30000003 cycles: 58696300 heartbeat IPC: 0.2134 cumulative IPC: 0.2134 (Simulation time: 00 hr 05 min 31 sec)
Heartbeat CPU 0 instructions: 40000005 cycles: 106033766 heartbeat IPC: 0.2112 cumulative IPC: 0.2123 (Simulation time: 00 hr 08 min 51 sec)
Heartbeat CPU 0 instructions: 50000006 cycles: 153481140 heartbeat IPC: 0.2108 cumulative IPC: 0.2118 (Simulation time: 00 hr 12 min 07 sec)
Heartbeat CPU 0 instructions: 60000007 cycles: 199964966 heartbeat IPC: 0.2151 cumulative IPC: 0.2126 (Simulation time: 00 hr 15 min 13 sec)
Simulation finished CPU 0 instructions: 50000002 cycles: 235908723 cumulative IPC: 0.2119 (Simulation time: 00 hr 18 min 36 sec)
Simulation complete CPU 0 instructions: 50000002 cycles: 235908723 cumulative IPC: 0.2119 (Simulation time: 00 hr 18 min 36 sec)

ChampSim completed all CPUs

=== Simulation ===
CPU 0 runs traces/473.astar-359B.champsimtrace.xz

Region of Interest Statistics

CPU 0 cumulative IPC: 0.2119 instructions: 50000002 cycles: 235908723
CPU 0 Branch Prediction Accuracy: 93.2% MPKI: 13.43 Average ROB Occupancy at Mispredict: 41.59
Branch type MPKI
BRANCH_DIRECT_JUMP: 0
BRANCH_INDIRECT: 0
BRANCH_CONDITIONAL: 13.42
BRANCH_DIRECT_CALL: 0
BRANCH_INDIRECT_CALL: 0.00054
BRANCH_RETURN: 0

cpu0->cpu0_STLB TOTAL        ACCESS:    1275578 HIT:     889325 MISS:     386253 MSHR_MERGE:          0
cpu0->cpu0_STLB LOAD         ACCESS:    1275578 HIT:     889325 MISS:     386253 MSHR_MERGE:          0
cpu0->cpu0_STLB RFO          ACCESS:          0 HIT:          0 MISS:          0 MSHR_MERGE:          0
cpu0->cpu0_STLB PREFETCH     ACCESS:          0 HIT:          0 MISS:          0 MSHR_MERGE:          0
cpu0->cpu0_STLB WRITE        ACCESS:          0 HIT:          0 MISS:          0 MSHR_MERGE:          0
cpu0->cpu0_STLB TRANSLATION  ACCESS:          0 HIT:          0 MISS:          0 MSHR_MERGE:          0
cpu0->cpu0_STLB PREFETCH REQUESTED:          0 ISSUED:          0 USEFUL:          0 USELESS:          0
cpu0->cpu0_STLB AVERAGE MISS LATENCY: 540.2 cycles
cpu0->cpu0_L2C TOTAL        ACCESS:    6155652 HIT:    2867146 MISS:    3288506 MSHR_MERGE:      69280
cpu0->cpu0_L2C LOAD         ACCESS:    1775429 HIT:     934356 MISS:     841073 MSHR_MERGE:      23007
cpu0->cpu0_L2C RFO          ACCESS:     767630 HIT:      43004 MISS:     724626 MSHR_MERGE:          0
cpu0->cpu0_L2C PREFETCH     ACCESS:    1794165 HIT:     715869 MISS:    1078296 MSHR_MERGE:      46273
cpu0->cpu0_L2C WRITE        ACCESS:    1168861 HIT:    1168250 MISS:        611 MSHR_MERGE:          0
cpu0->cpu0_L2C TRANSLATION  ACCESS:     649567 HIT:       5667 MISS:     643900 MSHR_MERGE:          0
cpu0->cpu0_L2C PREFETCH REQUESTED:    1794165 ISSUED:    1794165 USEFUL:     313857 USELESS:     719460
cpu0->cpu0_L2C AVERAGE MISS LATENCY: 226.5 cycles
cpu0->cpu0_L1I TOTAL        ACCESS:     952105 HIT:     952098 MISS:          7 MSHR_MERGE:          0
cpu0->cpu0_L1I LOAD         ACCESS:     952105 HIT:     952098 MISS:          7 MSHR_MERGE:          0
cpu0->cpu0_L1I RFO          ACCESS:          0 HIT:          0 MISS:          0 MSHR_MERGE:          0
cpu0->cpu0_L1I PREFETCH     ACCESS:          0 HIT:          0 MISS:          0 MSHR_MERGE:          0
cpu0->cpu0_L1I WRITE        ACCESS:          0 HIT:          0 MISS:          0 MSHR_MERGE:          0
cpu0->cpu0_L1I TRANSLATION  ACCESS:          0 HIT:          0 MISS:          0 MSHR_MERGE:          0
cpu0->cpu0_L1I PREFETCH REQUESTED:          0 ISSUED:          0 USEFUL:          0 USELESS:          0
cpu0->cpu0_L1I AVERAGE MISS LATENCY: 130.7 cycles
cpu0->cpu0_L1D TOTAL        ACCESS:   19882074 HIT:   16001449 MISS:    3880625 MSHR_MERGE:     688002
cpu0->cpu0_L1D LOAD         ACCESS:   12790866 HIT:   10421413 MISS:    2369453 MSHR_MERGE:     594029
cpu0->cpu0_L1D RFO          ACCESS:          0 HIT:          0 MISS:          0 MSHR_MERGE:          0
cpu0->cpu0_L1D PREFETCH     ACCESS:          0 HIT:          0 MISS:          0 MSHR_MERGE:          0
cpu0->cpu0_L1D WRITE        ACCESS:    6314612 HIT:    5546891 MISS:     767721 MSHR_MERGE:         89
cpu0->cpu0_L1D TRANSLATION  ACCESS:     776596 HIT:      33145 MISS:     743451 MSHR_MERGE:      93884
cpu0->cpu0_L1D PREFETCH REQUESTED:          0 ISSUED:          0 USEFUL:          0 USELESS:          0
cpu0->cpu0_L1D AVERAGE MISS LATENCY: 167.3 cycles
cpu0->cpu0_ITLB TOTAL        ACCESS:     930207 HIT:     930207 MISS:          0 MSHR_MERGE:          0
cpu0->cpu0_ITLB LOAD         ACCESS:     930207 HIT:     930207 MISS:          0 MSHR_MERGE:          0
cpu0->cpu0_ITLB RFO          ACCESS:          0 HIT:          0 MISS:          0 MSHR_MERGE:          0
cpu0->cpu0_ITLB PREFETCH     ACCESS:          0 HIT:          0 MISS:          0 MSHR_MERGE:          0
cpu0->cpu0_ITLB WRITE        ACCESS:          0 HIT:          0 MISS:          0 MSHR_MERGE:          0
cpu0->cpu0_ITLB TRANSLATION  ACCESS:          0 HIT:          0 MISS:          0 MSHR_MERGE:          0
cpu0->cpu0_ITLB PREFETCH REQUESTED:          0 ISSUED:          0 USEFUL:          0 USELESS:          0
cpu0->cpu0_ITLB AVERAGE MISS LATENCY: - cycles
cpu0->cpu0_DTLB TOTAL        ACCESS:   18175151 HIT:   16293596 MISS:    1881555 MSHR_MERGE:     605977
cpu0->cpu0_DTLB LOAD         ACCESS:   18175151 HIT:   16293596 MISS:    1881555 MSHR_MERGE:     605977
cpu0->cpu0_DTLB RFO          ACCESS:          0 HIT:          0 MISS:          0 MSHR_MERGE:          0
cpu0->cpu0_DTLB PREFETCH     ACCESS:          0 HIT:          0 MISS:          0 MSHR_MERGE:          0
cpu0->cpu0_DTLB WRITE        ACCESS:          0 HIT:          0 MISS:          0 MSHR_MERGE:          0
cpu0->cpu0_DTLB TRANSLATION  ACCESS:          0 HIT:          0 MISS:          0 MSHR_MERGE:          0
cpu0->cpu0_DTLB PREFETCH REQUESTED:          0 ISSUED:          0 USEFUL:          0 USELESS:          0
cpu0->cpu0_DTLB AVERAGE MISS LATENCY: 167.9 cycles
cpu0->LLC TOTAL        ACCESS:    4345114 HIT:    1068275 MISS:    3276839 MSHR_MERGE:          0
cpu0->LLC LOAD         ACCESS:     818065 HIT:     245747 MISS:     572318 MSHR_MERGE:          0
cpu0->LLC RFO          ACCESS:     724625 HIT:     226772 MISS:     497853 MSHR_MERGE:          0
cpu0->LLC PREFETCH     ACCESS:    1032023 HIT:     100783 MISS:     931240 MSHR_MERGE:          0
cpu0->LLC WRITE        ACCESS:    1126501 HIT:     426560 MISS:     699941 MSHR_MERGE:          0
cpu0->LLC TRANSLATION  ACCESS:     643900 HIT:      68413 MISS:     575487 MSHR_MERGE:          0
cpu0->LLC PREFETCH REQUESTED:          0 ISSUED:          0 USEFUL:          0 USELESS:          0
cpu0->LLC AVERAGE MISS LATENCY: 198.9 cycles

DRAM Statistics

Channel 0 RQ ROW_BUFFER_HIT:      64629
  ROW_BUFFER_MISS:    2510208
  AVG DBUS CONGESTED CYCLE: 19.04
Channel 0 WQ ROW_BUFFER_HIT:     127841
  ROW_BUFFER_MISS:     625663
  FULL:          0
Channel 0 REFRESHES ISSUED:      19659
