[VMEM] WARNING: physical memory size is smaller than virtual memory size.
WARNING: option --warmup_instructions is deprecated. Use --warmup-instructions instead.
WARNING: option --simulation_instructions is deprecated. Use --simulation-instructions instead.

*** ChampSim Multicore Out-of-Order Simulator ***
Warmup Instructions: 20000000
Simulation Instructions: 50000000
Number of CPUs: 1
Page size: 8192

Off-chip DRAM Size: 16 GiB Channels: 1 Width: 64-bit Data Rate: 3205 MT/s
Heartbeat CPU 0 instructions: 10000001 cycles: 2974850 heartbeat IPC: 3.362 cumulative IPC: 3.362 (Simulation time: 00 hr 00 min 34 sec)
Warmup finished CPU 0 instructions: 20000000 cycles: 5938095 cumulative IPC: 3.368 (Simulation time: 00 hr 01 min 08 sec)
Warmup complete CPU 0 instructions: 20000000 cycles: 5938095 cumulative IPC: 3.368 (Simulation time: 00 hr 01 min 08 sec)
Heartbeat CPU 0 instructions: 20000004 cycles: 5938096 heartbeat IPC: 3.375 cumulative IPC: 4 (Simulation time: 00 hr 01 min 08 sec)
Heartbeat CPU 0 instructions: 30000006 cycles: 17603741 heartbeat IPC: 0.8572 cumulative IPC: 0.8572 (Simulation time: 00 hr 02 min 59 sec)
Heartbeat CPU 0 instructions: 40000009 cycles: 29259252 heartbeat IPC: 0.858 cumulative IPC: 0.8576 (Simulation time: 00 hr 04 min 46 sec)
Heartbeat CPU 0 instructions: 50000009 cycles: 40981465 heartbeat IPC: 0.8531 cumulative IPC: 0.8561 (Simulation time: 00 hr 06 min 33 sec)
Heartbeat CPU 0 instructions: 60000010 cycles: 52694034 heartbeat IPC: 0.8538 cumulative IPC: 0.8555 (Simulation time: 00 hr 08 min 20 sec)
Simulation finished CPU 0 instructions: 50000002 cycles: 58467331 cumulative IPC: 0.8552 (Simulation time: 00 hr 10 min 08 sec)
Simulation complete CPU 0 instructions: 50000002 cycles: 58467331 cumulative IPC: 0.8552 (Simulation time: 00 hr 10 min 08 sec)

ChampSim completed all CPUs

=== Simulation ===
CPU 0 runs traces/470.lbm-1274B.champsimtrace.xz

Region of Interest Statistics

CPU 0 cumulative IPC: 0.8552 instructions: 50000002 cycles: 58467331
CPU 0 Branch Prediction Accuracy: 99.79% MPKI: 0.02864 Average ROB Occupancy at Mispredict: 175.4
Branch type MPKI
BRANCH_DIRECT_JUMP: 0
BRANCH_INDIRECT: 0
BRANCH_CONDITIONAL: 0.02864
BRANCH_DIRECT_CALL: 0
BRANCH_INDIRECT_CALL: 0
BRANCH_RETURN: 0

cpu0->cpu0_STLB TOTAL        ACCESS:      11115 HIT:       5557 MISS:       5558 MSHR_MERGE:          0
cpu0->cpu0_STLB LOAD         ACCESS:      11115 HIT:       5557 MISS:       5558 MSHR_MERGE:          0
cpu0->cpu0_STLB RFO          ACCESS:          0 HIT:          0 MISS:          0 MSHR_MERGE:          0
cpu0->cpu0_STLB PREFETCH     ACCESS:          0 HIT:          0 MISS:          0 MSHR_MERGE:          0
cpu0->cpu0_STLB WRITE        ACCESS:          0 HIT:          0 MISS:          0 MSHR_MERGE:          0
cpu0->cpu0_STLB TRANSLATION  ACCESS:          0 HIT:          0 MISS:          0 MSHR_MERGE:          0
cpu0->cpu0_STLB PREFETCH REQUESTED:          0 ISSUED:          0 USEFUL:          0 USELESS:          0
cpu0->cpu0_STLB AVERAGE MISS LATENCY: 1193 cycles
cpu0->cpu0_L2C TOTAL        ACCESS:    4887021 HIT:    3291383 MISS:    1595638 MSHR_MERGE:     152935
cpu0->cpu0_L2C LOAD         ACCESS:     355740 HIT:     235733 MISS:     120007 MSHR_MERGE:      77688
cpu0->cpu0_L2C RFO          ACCESS:    1993468 HIT:     915544 MISS:    1077924 MSHR_MERGE:          0
cpu0->cpu0_L2C PREFETCH     ACCESS:     533178 HIT:     144478 MISS:     388700 MSHR_MERGE:      75247
cpu0->cpu0_L2C WRITE        ACCESS:    1993507 HIT:    1993184 MISS:        323 MSHR_MERGE:          0
cpu0->cpu0_L2C TRANSLATION  ACCESS:      11128 HIT:       2444 MISS:       8684 MSHR_MERGE:          0
cpu0->cpu0_L2C PREFETCH REQUESTED:     533178 ISSUED:     533178 USEFUL:     313413 USELESS:         43
cpu0->cpu0_L2C AVERAGE MISS LATENCY: 461.5 cycles
cpu0->cpu0_L1I TOTAL        ACCESS:    8635775 HIT:    8635775 MISS:          0 MSHR_MERGE:          0
cpu0->cpu0_L1I LOAD         ACCESS:    8635775 HIT:    8635775 MISS:          0 MSHR_MERGE:          0
cpu0->cpu0_L1I RFO          ACCESS:          0 HIT:          0 MISS:          0 MSHR_MERGE:          0
cpu0->cpu0_L1I PREFETCH     ACCESS:          0 HIT:          0 MISS:          0 MSHR_MERGE:          0
cpu0->cpu0_L1I WRITE        ACCESS:          0 HIT:          0 MISS:          0 MSHR_MERGE:          0
cpu0->cpu0_L1I TRANSLATION  ACCESS:          0 HIT:          0 MISS:          0 MSHR_MERGE:          0
cpu0->cpu0_L1I PREFETCH REQUESTED:          0 ISSUED:          0 USEFUL:          0 USELESS:          0
cpu0->cpu0_L1I AVERAGE MISS LATENCY: - cycles
cpu0->cpu0_L1D TOTAL        ACCESS:    7387950 HIT:    4922377 MISS:    2465573 MSHR_MERGE:     105202
cpu0->cpu0_L1D LOAD         ACCESS:    2353303 HIT:    1929604 MISS:     423699 MSHR_MERGE:      67958
cpu0->cpu0_L1D RFO          ACCESS:          0 HIT:          0 MISS:          0 MSHR_MERGE:          0
cpu0->cpu0_L1D PREFETCH     ACCESS:          0 HIT:          0 MISS:          0 MSHR_MERGE:          0
cpu0->cpu0_L1D WRITE        ACCESS:    5023519 HIT:    2992773 MISS:    2030746 MSHR_MERGE:      37244
cpu0->cpu0_L1D TRANSLATION  ACCESS:      11128 HIT:          0 MISS:      11128 MSHR_MERGE:          0
cpu0->cpu0_L1D PREFETCH REQUESTED:          0 ISSUED:          0 USEFUL:          0 USELESS:          0
cpu0->cpu0_L1D AVERAGE MISS LATENCY: 269.7 cycles
cpu0->cpu0_ITLB TOTAL        ACCESS:    6897802 HIT:    6897802 MISS:          0 MSHR_MERGE:          0
cpu0->cpu0_ITLB LOAD         ACCESS:    6897802 HIT:    6897802 MISS:          0 MSHR_MERGE:          0
cpu0->cpu0_ITLB RFO          ACCESS:          0 HIT:          0 MISS:          0 MSHR_MERGE:          0
cpu0->cpu0_ITLB PREFETCH     ACCESS:          0 HIT:          0 MISS:          0 MSHR_MERGE:          0
cpu0->cpu0_ITLB WRITE        ACCESS:          0 HIT:          0 MISS:          0 MSHR_MERGE:          0
cpu0->cpu0_ITLB TRANSLATION  ACCESS:          0 HIT:          0 MISS:          0 MSHR_MERGE:          0
cpu0->cpu0_ITLB PREFETCH REQUESTED:          0 ISSUED:          0 USEFUL:          0 USELESS:          0
cpu0->cpu0_ITLB AVERAGE MISS LATENCY: - cycles
cpu0->cpu0_DTLB TOTAL        ACCESS:    6874060 HIT:    6849169 MISS:      24891 MSHR_MERGE:      13776
cpu0->cpu0_DTLB LOAD         ACCESS:    6874060 HIT:    6849169 MISS:      24891 MSHR_MERGE:      13776
cpu0->cpu0_DTLB RFO          ACCESS:          0 HIT:          0 MISS:          0 MSHR_MERGE:          0
cpu0->cpu0_DTLB PREFETCH     ACCESS:          0 HIT:          0 MISS:          0 MSHR_MERGE:          0
cpu0->cpu0_DTLB WRITE        ACCESS:          0 HIT:          0 MISS:          0 MSHR_MERGE:          0
cpu0->cpu0_DTLB TRANSLATION  ACCESS:          0 HIT:          0 MISS:          0 MSHR_MERGE:          0
cpu0->cpu0_DTLB PREFETCH REQUESTED:          0 ISSUED:          0 USEFUL:          0 USELESS:          0
cpu0->cpu0_DTLB AVERAGE MISS LATENCY: 601.1 cycles
cpu0->LLC TOTAL        ACCESS:    2520781 HIT:      71644 MISS:    2449137 MSHR_MERGE:          0
cpu0->LLC LOAD         ACCESS:      42319 HIT:          2 MISS:      42317 MSHR_MERGE:          0
cpu0->LLC RFO          ACCESS:    1077923 HIT:      21385 MISS:    1056538 MSHR_MERGE:          0
cpu0->LLC PREFETCH     ACCESS:     313453 HIT:          0 MISS:     313453 MSHR_MERGE:          0
cpu0->LLC WRITE        ACCESS:    1078402 HIT:      50257 MISS:    1028145 MSHR_MERGE:          0
cpu0->LLC TRANSLATION  ACCESS:       8684 HIT:          0 MISS:       8684 MSHR_MERGE:          0
cpu0->LLC PREFETCH REQUESTED:          0 ISSUED:          0 USEFUL:          0 USELESS:          0
cpu0->LLC AVERAGE MISS LATENCY: 246.6 cycles

DRAM Statistics

Channel 0 RQ ROW_BUFFER_HIT:      38599
  ROW_BUFFER_MISS:    1382218
  AVG DBUS CONGESTED CYCLE: 11.84
Channel 0 WQ ROW_BUFFER_HIT:     152158
  ROW_BUFFER_MISS:     899939
  FULL:          8
Channel 0 REFRESHES ISSUED:       4873
