[VMEM] WARNING: physical memory size is smaller than virtual memory size.
WARNING: option --warmup_instructions is deprecated. Use --warmup-instructions instead.
WARNING: option --simulation_instructions is deprecated. Use --simulation-instructions instead.

*** ChampSim Multicore Out-of-Order Simulator ***
Warmup Instructions: 20000000
Simulation Instructions: 50000000
Number of CPUs: 1
Page size: 8192

Off-chip DRAM Size: 16 GiB Channels: 1 Width: 64-bit Data Rate: 3205 MT/s
Heartbeat CPU 0 instructions: 10000000 cycles: 4476441 heartbeat IPC: 2.234 cumulative IPC: 2.234 (Simulation time: 00 hr 00 min 56 sec)
Heartbeat CPU 0 instructions: 20000000 cycles: 8912413 heartbeat IPC: 2.254 cumulative IPC: 2.244 (Simulation time: 00 hr 01 min 52 sec)
Warmup finished CPU 0 instructions: 20000000 cycles: 8912413 cumulative IPC: 2.244 (Simulation time: 00 hr 01 min 52 sec)
Warmup complete CPU 0 instructions: 20000000 cycles: 8912413 cumulative IPC: 2.244 (Simulation time: 00 hr 01 min 52 sec)
Heartbeat CPU 0 instructions: 30000001 cycles: 38409210 heartbeat IPC: 0.339 cumulative IPC: 0.339 (Simulation time: 00 hr 04 min 31 sec)
Heartbeat CPU 0 instructions: 40000001 cycles: 67483844 heartbeat IPC: 0.3439 cumulative IPC: 0.3415 (Simulation time: 00 hr 07 min 08 sec)
Heartbeat CPU 0 instructions: 50000004 cycles: 96763579 heartbeat IPC: 0.3415 cumulative IPC: 0.3415 (Simulation time: 00 hr 09 min 47 sec)
Heartbeat CPU 0 instructions: 60000004 cycles: 125511579 heartbeat IPC: 0.3479 cumulative IPC: 0.3431 (Simulation time: 00 hr 12 min 24 sec)
Simulation finished CPU 0 instructions: 50000000 cycles: 145662668 cumulative IPC: 0.3433 (Simulation time: 00 hr 15 min 02 sec)
Simulation complete CPU 0 instructions: 50000000 cycles: 145662668 cumulative IPC: 0.3433 (Simulation time: 00 hr 15 min 02 sec)

ChampSim completed all CPUs

=== Simulation ===
CPU 0 runs traces/605.mcf_s-1152B.champsimtrace.xz

Region of Interest Statistics

CPU 0 cumulative IPC: 0.3433 instructions: 50000000 cycles: 145662668
CPU 0 Branch Prediction Accuracy: 90.19% MPKI: 24.48 Average ROB Occupancy at Mispredict: 21.44
Branch type MPKI
BRANCH_DIRECT_JUMP: 0.2057
BRANCH_INDIRECT: 0
BRANCH_CONDITIONAL: 24.27
BRANCH_DIRECT_CALL: 0
BRANCH_INDIRECT_CALL: 0.0036
BRANCH_RETURN: 2e-05

cpu0->cpu0_STLB TOTAL        ACCESS:    1006238 HIT:    1000481 MISS:       5757 MSHR_MERGE:          0
cpu0->cpu0_STLB LOAD         ACCESS:    1006238 HIT:    1000481 MISS:       5757 MSHR_MERGE:          0
cpu0->cpu0_STLB RFO          ACCESS:          0 HIT:          0 MISS:          0 MSHR_MERGE:          0
cpu0->cpu0_STLB PREFETCH     ACCESS:          0 HIT:          0 MISS:          0 MSHR_MERGE:          0
cpu0->cpu0_STLB WRITE        ACCESS:          0 HIT:          0 MISS:          0 MSHR_MERGE:          0
cpu0->cpu0_STLB TRANSLATION  ACCESS:          0 HIT:          0 MISS:          0 MSHR_MERGE:          0
cpu0->cpu0_STLB PREFETCH REQUESTED:          0 ISSUED:          0 USEFUL:          0 USELESS:          0
cpu0->cpu0_STLB AVERAGE MISS LATENCY: 613.4 cycles
cpu0->cpu0_L2C TOTAL        ACCESS:    5744973 HIT:    3021225 MISS:    2723748 MSHR_MERGE:     420708
cpu0->cpu0_L2C LOAD         ACCESS:    2552747 HIT:    1024974 MISS:    1527773 MSHR_MERGE:      28281
cpu0->cpu0_L2C RFO          ACCESS:     187385 HIT:      59290 MISS:     128095 MSHR_MERGE:          0
cpu0->cpu0_L2C PREFETCH     ACCESS:    2730688 HIT:    1669924 MISS:    1060764 MSHR_MERGE:     392427
cpu0->cpu0_L2C WRITE        ACCESS:     265806 HIT:     265486 MISS:        320 MSHR_MERGE:          0
cpu0->cpu0_L2C TRANSLATION  ACCESS:       8347 HIT:       1551 MISS:       6796 MSHR_MERGE:          0
cpu0->cpu0_L2C PREFETCH REQUESTED:    2730756 ISSUED:    2730688 USEFUL:     634547 USELESS:      33778
cpu0->cpu0_L2C AVERAGE MISS LATENCY: 51.66 cycles
cpu0->cpu0_L1I TOTAL        ACCESS:     445935 HIT:     445935 MISS:          0 MSHR_MERGE:          0
cpu0->cpu0_L1I LOAD         ACCESS:     445935 HIT:     445935 MISS:          0 MSHR_MERGE:          0
cpu0->cpu0_L1I RFO          ACCESS:          0 HIT:          0 MISS:          0 MSHR_MERGE:          0
cpu0->cpu0_L1I PREFETCH     ACCESS:          0 HIT:          0 MISS:          0 MSHR_MERGE:          0
cpu0->cpu0_L1I WRITE        ACCESS:          0 HIT:          0 MISS:          0 MSHR_MERGE:          0
cpu0->cpu0_L1I TRANSLATION  ACCESS:          0 HIT:          0 MISS:          0 MSHR_MERGE:          0
cpu0->cpu0_L1I PREFETCH REQUESTED:          0 ISSUED:          0 USEFUL:          0 USELESS:          0
cpu0->cpu0_L1I AVERAGE MISS LATENCY: - cycles
cpu0->cpu0_L1D TOTAL        ACCESS:   17982424 HIT:   14409471 MISS:    3572953 MSHR_MERGE:     824469
cpu0->cpu0_L1D LOAD         ACCESS:   12806252 HIT:    9720655 MISS:    3085597 MSHR_MERGE:     532849
cpu0->cpu0_L1D RFO          ACCESS:          0 HIT:          0 MISS:          0 MSHR_MERGE:          0
cpu0->cpu0_L1D PREFETCH     ACCESS:          0 HIT:          0 MISS:          0 MSHR_MERGE:          0
cpu0->cpu0_L1D WRITE        ACCESS:    5164562 HIT:    4685553 MISS:     479009 MSHR_MERGE:     291620
cpu0->cpu0_L1D TRANSLATION  ACCESS:      11610 HIT:       3263 MISS:       8347 MSHR_MERGE:          0
cpu0->cpu0_L1D PREFETCH REQUESTED:          0 ISSUED:          0 USEFUL:          0 USELESS:          0
cpu0->cpu0_L1D AVERAGE MISS LATENCY: 39.87 cycles
cpu0->cpu0_ITLB TOTAL        ACCESS:     408600 HIT:     408600 MISS:          0 MSHR_MERGE:          0
cpu0->cpu0_ITLB LOAD         ACCESS:     408600 HIT:     408600 MISS:          0 MSHR_MERGE:          0
cpu0->cpu0_ITLB RFO          ACCESS:          0 HIT:          0 MISS:          0 MSHR_MERGE:          0
cpu0->cpu0_ITLB PREFETCH     ACCESS:          0 HIT:          0 MISS:          0 MSHR_MERGE:          0
cpu0->cpu0_ITLB WRITE        ACCESS:          0 HIT:          0 MISS:          0 MSHR_MERGE:          0
cpu0->cpu0_ITLB TRANSLATION  ACCESS:          0 HIT:          0 MISS:          0 MSHR_MERGE:          0
cpu0->cpu0_ITLB PREFETCH REQUESTED:          0 ISSUED:          0 USEFUL:          0 USELESS:          0
cpu0->cpu0_ITLB AVERAGE MISS LATENCY: - cycles
cpu0->cpu0_DTLB TOTAL        ACCESS:   16843427 HIT:   15650695 MISS:    1192732 MSHR_MERGE:     186494
cpu0->cpu0_DTLB LOAD         ACCESS:   16843427 HIT:   15650695 MISS:    1192732 MSHR_MERGE:     186494
cpu0->cpu0_DTLB RFO          ACCESS:          0 HIT:          0 MISS:          0 MSHR_MERGE:          0
cpu0->cpu0_DTLB PREFETCH     ACCESS:          0 HIT:          0 MISS:          0 MSHR_MERGE:          0
cpu0->cpu0_DTLB WRITE        ACCESS:          0 HIT:          0 MISS:          0 MSHR_MERGE:          0
cpu0->cpu0_DTLB TRANSLATION  ACCESS:          0 HIT:          0 MISS:          0 MSHR_MERGE:          0
cpu0->cpu0_DTLB PREFETCH REQUESTED:          0 ISSUED:          0 USEFUL:          0 USELESS:          0
cpu0->cpu0_DTLB AVERAGE MISS LATENCY: 7.515 cycles
cpu0->LLC TOTAL        ACCESS:    2502852 HIT:    1425574 MISS:    1077278 MSHR_MERGE:          0
cpu0->LLC LOAD         ACCESS:    1499492 HIT:    1090730 MISS:     408762 MSHR_MERGE:          0
cpu0->LLC RFO          ACCESS:     128095 HIT:     126308 MISS:       1787 MSHR_MERGE:          0
cpu0->LLC PREFETCH     ACCESS:     668337 HIT:      12707 MISS:     655630 MSHR_MERGE:          0
cpu0->LLC WRITE        ACCESS:     200132 HIT:     195823 MISS:       4309 MSHR_MERGE:          0
cpu0->LLC TRANSLATION  ACCESS:       6796 HIT:          6 MISS:       6790 MSHR_MERGE:          0
cpu0->LLC PREFETCH REQUESTED:          0 ISSUED:          0 USEFUL:          0 USELESS:          0
cpu0->LLC AVERAGE MISS LATENCY: 133.3 cycles

DRAM Statistics

Channel 0 RQ ROW_BUFFER_HIT:     293581
  ROW_BUFFER_MISS:     779382
  AVG DBUS CONGESTED CYCLE: 17.19
Channel 0 WQ ROW_BUFFER_HIT:       1474
  ROW_BUFFER_MISS:       5154
  FULL:          0
Channel 0 REFRESHES ISSUED:      12139
