[VMEM] WARNING: physical memory size is smaller than virtual memory size.
WARNING: option --warmup_instructions is deprecated. Use --warmup-instructions instead.
WARNING: option --simulation_instructions is deprecated. Use --simulation-instructions instead.

*** ChampSim Multicore Out-of-Order Simulator ***
Warmup Instructions: 20000000
Simulation Instructions: 50000000
Number of CPUs: 1
Page size: 8192

Off-chip DRAM Size: 16 GiB Channels: 1 Width: 64-bit Data Rate: 3205 MT/s
Heartbeat CPU 0 instructions: 10000000 cycles: 6443809 heartbeat IPC: 1.552 cumulative IPC: 1.552 (Simulation time: 00 hr 01 min 14 sec)
Heartbeat CPU 0 instructions: 20000001 cycles: 10287043 heartbeat IPC: 2.602 cumulative IPC: 1.944 (Simulation time: 00 hr 02 min 08 sec)
Warmup finished CPU 0 instructions: 20000001 cycles: 10287043 cumulative IPC: 1.944 (Simulation time: 00 hr 02 min 08 sec)
Warmup complete CPU 0 instructions: 20000001 cycles: 10287043 cumulative IPC: 1.944 (Simulation time: 00 hr 02 min 08 sec)
Heartbeat CPU 0 instructions: 30000003 cycles: 60102993 heartbeat IPC: 0.2007 cumulative IPC: 0.2007 (Simulation time: 00 hr 06 min 45 sec)
Heartbeat CPU 0 instructions: 40000005 cycles: 110003441 heartbeat IPC: 0.2004 cumulative IPC: 0.2006 (Simulation time: 00 hr 11 min 29 sec)
Heartbeat CPU 0 instructions: 50000006 cycles: 160159503 heartbeat IPC: 0.1994 cumulative IPC: 0.2002 (Simulation time: 00 hr 16 min 22 sec)
Heartbeat CPU 0 instructions: 60000007 cycles: 209674837 heartbeat IPC: 0.202 cumulative IPC: 0.2006 (Simulation time: 00 hr 21 min 08 sec)
Simulation finished CPU 0 instructions: 50000002 cycles: 248321411 cumulative IPC: 0.2014 (Simulation time: 00 hr 25 min 49 sec)
Simulation complete CPU 0 instructions: 50000002 cycles: 248321411 cumulative IPC: 0.2014 (Simulation time: 00 hr 25 min 49 sec)

ChampSim completed all CPUs

=== Simulation ===
CPU 0 runs traces/473.astar-359B.champsimtrace.xz

Region of Interest Statistics

CPU 0 cumulative IPC: 0.2014 instructions: 50000002 cycles: 248321411
CPU 0 Branch Prediction Accuracy: 93.2% MPKI: 13.43 Average ROB Occupancy at Mispredict: 44.44
Branch type MPKI
BRANCH_DIRECT_JUMP: 0
BRANCH_INDIRECT: 0
BRANCH_CONDITIONAL: 13.42
BRANCH_DIRECT_CALL: 0
BRANCH_INDIRECT_CALL: 0.00054
BRANCH_RETURN: 0

cpu0->cpu0_STLB TOTAL        ACCESS:    1275624 HIT:     889361 MISS:     386263 MSHR_MERGE:          0
cpu0->cpu0_STLB LOAD         ACCESS:    1275624 HIT:     889361 MISS:     386263 MSHR_MERGE:          0
cpu0->cpu0_STLB RFO          ACCESS:          0 HIT:          0 MISS:          0 MSHR_MERGE:          0
cpu0->cpu0_STLB PREFETCH     ACCESS:          0 HIT:          0 MISS:          0 MSHR_MERGE:          0
cpu0->cpu0_STLB WRITE        ACCESS:          0 HIT:          0 MISS:          0 MSHR_MERGE:          0
cpu0->cpu0_STLB TRANSLATION  ACCESS:          0 HIT:          0 MISS:          0 MSHR_MERGE:          0
cpu0->cpu0_STLB PREFETCH REQUESTED:          0 ISSUED:          0 USEFUL:          0 USELESS:          0
cpu0->cpu0_STLB AVERAGE MISS LATENCY: 560.5 cycles
cpu0->cpu0_L2C TOTAL        ACCESS:    5078576 HIT:    2299863 MISS:    2778713 MSHR_MERGE:      88842
cpu0->cpu0_L2C LOAD         ACCESS:    1775431 HIT:     803343 MISS:     972088 MSHR_MERGE:      39776
cpu0->cpu0_L2C RFO          ACCESS:     767636 HIT:      47800 MISS:     719836 MSHR_MERGE:          0
cpu0->cpu0_L2C PREFETCH     ACCESS:     716883 HIT:     272664 MISS:     444219 MSHR_MERGE:      49066
cpu0->cpu0_L2C WRITE        ACCESS:    1168866 HIT:    1168817 MISS:         49 MSHR_MERGE:          0
cpu0->cpu0_L2C TRANSLATION  ACCESS:     649760 HIT:       7239 MISS:     642521 MSHR_MERGE:          0
cpu0->cpu0_L2C PREFETCH REQUESTED:     716883 ISSUED:     716883 USEFUL:     124455 USELESS:     271440
cpu0->cpu0_L2C AVERAGE MISS LATENCY: 247.5 cycles
cpu0->cpu0_L1I TOTAL        ACCESS:     830507 HIT:     830500 MISS:          7 MSHR_MERGE:          0
cpu0->cpu0_L1I LOAD         ACCESS:     830507 HIT:     830500 MISS:          7 MSHR_MERGE:          0
cpu0->cpu0_L1I RFO          ACCESS:          0 HIT:          0 MISS:          0 MSHR_MERGE:          0
cpu0->cpu0_L1I PREFETCH     ACCESS:          0 HIT:          0 MISS:          0 MSHR_MERGE:          0
cpu0->cpu0_L1I WRITE        ACCESS:          0 HIT:          0 MISS:          0 MSHR_MERGE:          0
cpu0->cpu0_L1I TRANSLATION  ACCESS:          0 HIT:          0 MISS:          0 MSHR_MERGE:          0
cpu0->cpu0_L1I PREFETCH REQUESTED:          0 ISSUED:          0 USEFUL:          0 USELESS:          0
cpu0->cpu0_L1I AVERAGE MISS LATENCY: 267 cycles
cpu0->cpu0_L1D TOTAL        ACCESS:   19846870 HIT:   15941051 MISS:    3905819 MSHR_MERGE:     712996
cpu0->cpu0_L1D LOAD         ACCESS:   12755651 HIT:   10360107 MISS:    2395544 MSHR_MERGE:     620118
cpu0->cpu0_L1D RFO          ACCESS:          0 HIT:          0 MISS:          0 MSHR_MERGE:          0
cpu0->cpu0_L1D PREFETCH     ACCESS:          0 HIT:          0 MISS:          0 MSHR_MERGE:          0
cpu0->cpu0_L1D WRITE        ACCESS:    6314498 HIT:    5546801 MISS:     767697 MSHR_MERGE:         60
cpu0->cpu0_L1D TRANSLATION  ACCESS:     776721 HIT:      34143 MISS:     742578 MSHR_MERGE:      92818
cpu0->cpu0_L1D PREFETCH REQUESTED:          0 ISSUED:          0 USEFUL:          0 USELESS:          0
cpu0->cpu0_L1D AVERAGE MISS LATENCY: 192.6 cycles
cpu0->cpu0_ITLB TOTAL        ACCESS:     828246 HIT:     828246 MISS:          0 MSHR_MERGE:          0
cpu0->cpu0_ITLB LOAD         ACCESS:     828246 HIT:     828246 MISS:          0 MSHR_MERGE:          0
cpu0->cpu0_ITLB RFO          ACCESS:          0 HIT:          0 MISS:          0 MSHR_MERGE:          0
cpu0->cpu0_ITLB PREFETCH     ACCESS:          0 HIT:          0 MISS:          0 MSHR_MERGE:          0
cpu0->cpu0_ITLB WRITE        ACCESS:          0 HIT:          0 MISS:          0 MSHR_MERGE:          0
cpu0->cpu0_ITLB TRANSLATION  ACCESS:          0 HIT:          0 MISS:          0 MSHR_MERGE:          0
cpu0->cpu0_ITLB PREFETCH REQUESTED:          0 ISSUED:          0 USEFUL:          0 USELESS:          0
cpu0->cpu0_ITLB AVERAGE MISS LATENCY: - cycles
cpu0->cpu0_DTLB TOTAL        ACCESS:   18143109 HIT:   16261559 MISS:    1881550 MSHR_MERGE:     605926
cpu0->cpu0_DTLB LOAD         ACCESS:   18143109 HIT:   16261559 MISS:    1881550 MSHR_MERGE:     605926
cpu0->cpu0_DTLB RFO          ACCESS:          0 HIT:          0 MISS:          0 MSHR_MERGE:          0
cpu0->cpu0_DTLB PREFETCH     ACCESS:          0 HIT:          0 MISS:          0 MSHR_MERGE:          0
cpu0->cpu0_DTLB WRITE        ACCESS:          0 HIT:          0 MISS:          0 MSHR_MERGE:          0
cpu0->cpu0_DTLB TRANSLATION  ACCESS:          0 HIT:          0 MISS:          0 MSHR_MERGE:          0
cpu0->cpu0_DTLB PREFETCH REQUESTED:          0 ISSUED:          0 USEFUL:          0 USELESS:          0
cpu0->cpu0_DTLB AVERAGE MISS LATENCY: 174 cycles
cpu0->LLC TOTAL        ACCESS:    3809850 HIT:     840555 MISS:    2969295 MSHR_MERGE:          0
cpu0->LLC LOAD         ACCESS:     932312 HIT:     214559 MISS:     717753 MSHR_MERGE:          0
cpu0->LLC RFO          ACCESS:     719835 HIT:     155386 MISS:     564449 MSHR_MERGE:          0
cpu0->LLC PREFETCH     ACCESS:     395153 HIT:      53682 MISS:     341471 MSHR_MERGE:          0
cpu0->LLC WRITE        ACCESS:    1120029 HIT:     313198 MISS:     806831 MSHR_MERGE:          0
cpu0->LLC TRANSLATION  ACCESS:     642521 HIT:     103730 MISS:     538791 MSHR_MERGE:          0
cpu0->LLC PREFETCH REQUESTED:          0 ISSUED:          0 USEFUL:          0 USELESS:          0
cpu0->LLC AVERAGE MISS LATENCY: 203 cycles

DRAM Statistics

Channel 0 RQ ROW_BUFFER_HIT:      67692
  ROW_BUFFER_MISS:    2094642
  AVG DBUS CONGESTED CYCLE: 19.56
Channel 0 WQ ROW_BUFFER_HIT:     131428
  ROW_BUFFER_MISS:     723941
  FULL:         80
Channel 0 REFRESHES ISSUED:      20693
