[VMEM] WARNING: physical memory size is smaller than virtual memory size.
WARNING: option --warmup_instructions is deprecated. Use --warmup-instructions instead.
WARNING: option --simulation_instructions is deprecated. Use --simulation-instructions instead.

*** ChampSim Multicore Out-of-Order Simulator ***
Warmup Instructions: 20000000
Simulation Instructions: 50000000
Number of CPUs: 1
Page size: 8192

Off-chip DRAM Size: 16 GiB Channels: 1 Width: 64-bit Data Rate: 3205 MT/s
Heartbeat CPU 0 instructions: 10000001 cycles: 4634061 heartbeat IPC: 2.158 cumulative IPC: 2.158 (Simulation time: 00 hr 00 min 47 sec)
Heartbeat CPU 0 instructions: 20000002 cycles: 9214422 heartbeat IPC: 2.183 cumulative IPC: 2.171 (Simulation time: 00 hr 01 min 33 sec)
Warmup finished CPU 0 instructions: 20000002 cycles: 9214422 cumulative IPC: 2.171 (Simulation time: 00 hr 01 min 33 sec)
Warmup complete CPU 0 instructions: 20000002 cycles: 9214422 cumulative IPC: 2.171 (Simulation time: 00 hr 01 min 33 sec)
Heartbeat CPU 0 instructions: 30000005 cycles: 46975684 heartbeat IPC: 0.2648 cumulative IPC: 0.2648 (Simulation time: 00 hr 03 min 59 sec)
Heartbeat CPU 0 instructions: 40000005 cycles: 84733908 heartbeat IPC: 0.2648 cumulative IPC: 0.2648 (Simulation time: 00 hr 06 min 26 sec)
Heartbeat CPU 0 instructions: 50000007 cycles: 123264519 heartbeat IPC: 0.2595 cumulative IPC: 0.263 (Simulation time: 00 hr 08 min 57 sec)
Heartbeat CPU 0 instructions: 60000007 cycles: 161863305 heartbeat IPC: 0.2591 cumulative IPC: 0.262 (Simulation time: 00 hr 11 min 26 sec)
Simulation finished CPU 0 instructions: 50000002 cycles: 191866632 cumulative IPC: 0.2606 (Simulation time: 00 hr 13 min 56 sec)
Simulation complete CPU 0 instructions: 50000002 cycles: 191866632 cumulative IPC: 0.2606 (Simulation time: 00 hr 13 min 56 sec)

ChampSim completed all CPUs

=== Simulation ===
CPU 0 runs traces/605.mcf_s-1152B.champsimtrace.xz

Region of Interest Statistics

CPU 0 cumulative IPC: 0.2606 instructions: 50000002 cycles: 191866632
CPU 0 Branch Prediction Accuracy: 90.19% MPKI: 24.48 Average ROB Occupancy at Mispredict: 21.36
Branch type MPKI
BRANCH_DIRECT_JUMP: 0.2057
BRANCH_INDIRECT: 0
BRANCH_CONDITIONAL: 24.27
BRANCH_DIRECT_CALL: 0
BRANCH_INDIRECT_CALL: 0.0036
BRANCH_RETURN: 2e-05

cpu0->cpu0_STLB TOTAL        ACCESS:    1006195 HIT:    1000438 MISS:       5757 MSHR_MERGE:          0
cpu0->cpu0_STLB LOAD         ACCESS:    1006195 HIT:    1000438 MISS:       5757 MSHR_MERGE:          0
cpu0->cpu0_STLB RFO          ACCESS:          0 HIT:          0 MISS:          0 MSHR_MERGE:          0
cpu0->cpu0_STLB PREFETCH     ACCESS:          0 HIT:          0 MISS:          0 MSHR_MERGE:          0
cpu0->cpu0_STLB WRITE        ACCESS:          0 HIT:          0 MISS:          0 MSHR_MERGE:          0
cpu0->cpu0_STLB TRANSLATION  ACCESS:          0 HIT:          0 MISS:          0 MSHR_MERGE:          0
cpu0->cpu0_STLB PREFETCH REQUESTED:          0 ISSUED:          0 USEFUL:          0 USELESS:          0
cpu0->cpu0_STLB AVERAGE MISS LATENCY: 626.7 cycles
cpu0->cpu0_L2C TOTAL        ACCESS:    5517531 HIT:    1734894 MISS:    3782637 MSHR_MERGE:     141211
cpu0->cpu0_L2C LOAD         ACCESS:    2552743 HIT:    1047205 MISS:    1505538 MSHR_MERGE:      91761
cpu0->cpu0_L2C RFO          ACCESS:     187386 HIT:      37548 MISS:     149838 MSHR_MERGE:          0
cpu0->cpu0_L2C PREFETCH     ACCESS:    2503298 HIT:     383606 MISS:    2119692 MSHR_MERGE:      49450
cpu0->cpu0_L2C WRITE        ACCESS:     265755 HIT:     265057 MISS:        698 MSHR_MERGE:          0
cpu0->cpu0_L2C TRANSLATION  ACCESS:       8349 HIT:       1478 MISS:       6871 MSHR_MERGE:          0
cpu0->cpu0_L2C PREFETCH REQUESTED:    2503299 ISSUED:    2503299 USEFUL:     782407 USELESS:    1287848
cpu0->cpu0_L2C AVERAGE MISS LATENCY: 94.19 cycles
cpu0->cpu0_L1I TOTAL        ACCESS:     436284 HIT:     436284 MISS:          0 MSHR_MERGE:          0
cpu0->cpu0_L1I LOAD         ACCESS:     436284 HIT:     436284 MISS:          0 MSHR_MERGE:          0
cpu0->cpu0_L1I RFO          ACCESS:          0 HIT:          0 MISS:          0 MSHR_MERGE:          0
cpu0->cpu0_L1I PREFETCH     ACCESS:          0 HIT:          0 MISS:          0 MSHR_MERGE:          0
cpu0->cpu0_L1I WRITE        ACCESS:          0 HIT:          0 MISS:          0 MSHR_MERGE:          0
cpu0->cpu0_L1I TRANSLATION  ACCESS:          0 HIT:          0 MISS:          0 MSHR_MERGE:          0
cpu0->cpu0_L1I PREFETCH REQUESTED:          0 ISSUED:          0 USEFUL:          0 USELESS:          0
cpu0->cpu0_L1I AVERAGE MISS LATENCY: - cycles
cpu0->cpu0_L1D TOTAL        ACCESS:   17985564 HIT:   14388414 MISS:    3597150 MSHR_MERGE:     848669
cpu0->cpu0_L1D LOAD         ACCESS:   12809642 HIT:    9726275 MISS:    3083367 MSHR_MERGE:     530624
cpu0->cpu0_L1D RFO          ACCESS:          0 HIT:          0 MISS:          0 MSHR_MERGE:          0
cpu0->cpu0_L1D PREFETCH     ACCESS:          0 HIT:          0 MISS:          0 MSHR_MERGE:          0
cpu0->cpu0_L1D WRITE        ACCESS:    5164312 HIT:    4658878 MISS:     505434 MSHR_MERGE:     318045
cpu0->cpu0_L1D TRANSLATION  ACCESS:      11610 HIT:       3261 MISS:       8349 MSHR_MERGE:          0
cpu0->cpu0_L1D PREFETCH REQUESTED:          0 ISSUED:          0 USEFUL:          0 USELESS:          0
cpu0->cpu0_L1D AVERAGE MISS LATENCY: 65.61 cycles
cpu0->cpu0_ITLB TOTAL        ACCESS:     404859 HIT:     404859 MISS:          0 MSHR_MERGE:          0
cpu0->cpu0_ITLB LOAD         ACCESS:     404859 HIT:     404859 MISS:          0 MSHR_MERGE:          0
cpu0->cpu0_ITLB RFO          ACCESS:          0 HIT:          0 MISS:          0 MSHR_MERGE:          0
cpu0->cpu0_ITLB PREFETCH     ACCESS:          0 HIT:          0 MISS:          0 MSHR_MERGE:          0
cpu0->cpu0_ITLB WRITE        ACCESS:          0 HIT:          0 MISS:          0 MSHR_MERGE:          0
cpu0->cpu0_ITLB TRANSLATION  ACCESS:          0 HIT:          0 MISS:          0 MSHR_MERGE:          0
cpu0->cpu0_ITLB PREFETCH REQUESTED:          0 ISSUED:          0 USEFUL:          0 USELESS:          0
cpu0->cpu0_ITLB AVERAGE MISS LATENCY: - cycles
cpu0->cpu0_DTLB TOTAL        ACCESS:   16846992 HIT:   15656421 MISS:    1190571 MSHR_MERGE:     184376
cpu0->cpu0_DTLB LOAD         ACCESS:   16846992 HIT:   15656421 MISS:    1190571 MSHR_MERGE:     184376
cpu0->cpu0_DTLB RFO          ACCESS:          0 HIT:          0 MISS:          0 MSHR_MERGE:          0
cpu0->cpu0_DTLB PREFETCH     ACCESS:          0 HIT:          0 MISS:          0 MSHR_MERGE:          0
cpu0->cpu0_DTLB WRITE        ACCESS:          0 HIT:          0 MISS:          0 MSHR_MERGE:          0
cpu0->cpu0_DTLB TRANSLATION  ACCESS:          0 HIT:          0 MISS:          0 MSHR_MERGE:          0
cpu0->cpu0_DTLB PREFETCH REQUESTED:          0 ISSUED:          0 USEFUL:          0 USELESS:          0
cpu0->cpu0_DTLB AVERAGE MISS LATENCY: 7.591 cycles
cpu0->LLC TOTAL        ACCESS:    3853512 HIT:    1481307 MISS:    2372205 MSHR_MERGE:          0
cpu0->LLC LOAD         ACCESS:    1413776 HIT:     633083 MISS:     780693 MSHR_MERGE:          0
cpu0->LLC RFO          ACCESS:     149838 HIT:     142710 MISS:       7128 MSHR_MERGE:          0
cpu0->LLC PREFETCH     ACCESS:    2070242 HIT:     507366 MISS:    1562876 MSHR_MERGE:          0
cpu0->LLC WRITE        ACCESS:     212785 HIT:     198140 MISS:      14645 MSHR_MERGE:          0
cpu0->LLC TRANSLATION  ACCESS:       6871 HIT:          8 MISS:       6863 MSHR_MERGE:          0
cpu0->LLC PREFETCH REQUESTED:          0 ISSUED:          0 USEFUL:          0 USELESS:          0
cpu0->LLC AVERAGE MISS LATENCY: 148.9 cycles

DRAM Statistics

Channel 0 RQ ROW_BUFFER_HIT:      62176
  ROW_BUFFER_MISS:    2295355
  AVG DBUS CONGESTED CYCLE: 17.34
Channel 0 WQ ROW_BUFFER_HIT:       3691
  ROW_BUFFER_MISS:      11756
  FULL:          0
Channel 0 REFRESHES ISSUED:      15989
