[VMEM] WARNING: physical memory size is smaller than virtual memory size.
WARNING: option --warmup_instructions is deprecated. Use --warmup-instructions instead.
WARNING: option --simulation_instructions is deprecated. Use --simulation-instructions instead.

*** ChampSim Multicore Out-of-Order Simulator ***
Warmup Instructions: 20000000
Simulation Instructions: 50000000
Number of CPUs: 1
Page size: 8192

Off-chip DRAM Size: 16 GiB Channels: 1 Width: 64-bit Data Rate: 3205 MT/s
Heartbeat CPU 0 instructions: 10000000 cycles: 4304336 heartbeat IPC: 2.323 cumulative IPC: 2.323 (Simulation time: 00 hr 00 min 48 sec)
Heartbeat CPU 0 instructions: 20000000 cycles: 8600158 heartbeat IPC: 2.328 cumulative IPC: 2.326 (Simulation time: 00 hr 01 min 36 sec)
Warmup finished CPU 0 instructions: 20000000 cycles: 8600158 cumulative IPC: 2.326 (Simulation time: 00 hr 01 min 36 sec)
Warmup complete CPU 0 instructions: 20000000 cycles: 8600158 cumulative IPC: 2.326 (Simulation time: 00 hr 01 min 36 sec)
Heartbeat CPU 0 instructions: 30000003 cycles: 16205372 heartbeat IPC: 1.315 cumulative IPC: 1.315 (Simulation time: 00 hr 02 min 44 sec)
Heartbeat CPU 0 instructions: 40000003 cycles: 23806665 heartbeat IPC: 1.316 cumulative IPC: 1.315 (Simulation time: 00 hr 03 min 53 sec)
Heartbeat CPU 0 instructions: 50000003 cycles: 31412626 heartbeat IPC: 1.315 cumulative IPC: 1.315 (Simulation time: 00 hr 05 min 00 sec)
Heartbeat CPU 0 instructions: 60000005 cycles: 39013259 heartbeat IPC: 1.316 cumulative IPC: 1.315 (Simulation time: 00 hr 06 min 08 sec)
Simulation finished CPU 0 instructions: 50000000 cycles: 38020400 cumulative IPC: 1.315 (Simulation time: 00 hr 07 min 17 sec)
Simulation complete CPU 0 instructions: 50000000 cycles: 38020400 cumulative IPC: 1.315 (Simulation time: 00 hr 07 min 17 sec)

ChampSim completed all CPUs

=== Simulation ===
CPU 0 runs traces/603.bwaves_s-1740B.champsimtrace.xz

Region of Interest Statistics

CPU 0 cumulative IPC: 1.315 instructions: 50000000 cycles: 38020400
CPU 0 Branch Prediction Accuracy: 99.97% MPKI: 0.00734 Average ROB Occupancy at Mispredict: 190
Branch type MPKI
BRANCH_DIRECT_JUMP: 0
BRANCH_INDIRECT: 0
BRANCH_CONDITIONAL: 0.00734
BRANCH_DIRECT_CALL: 0
BRANCH_INDIRECT_CALL: 0
BRANCH_RETURN: 0

cpu0->cpu0_STLB TOTAL        ACCESS:       7425 HIT:        365 MISS:       7060 MSHR_MERGE:          0
cpu0->cpu0_STLB LOAD         ACCESS:       7425 HIT:        365 MISS:       7060 MSHR_MERGE:          0
cpu0->cpu0_STLB RFO          ACCESS:          0 HIT:          0 MISS:          0 MSHR_MERGE:          0
cpu0->cpu0_STLB PREFETCH     ACCESS:          0 HIT:          0 MISS:          0 MSHR_MERGE:          0
cpu0->cpu0_STLB WRITE        ACCESS:          0 HIT:          0 MISS:          0 MSHR_MERGE:          0
cpu0->cpu0_STLB TRANSLATION  ACCESS:          0 HIT:          0 MISS:          0 MSHR_MERGE:          0
cpu0->cpu0_STLB PREFETCH REQUESTED:          0 ISSUED:          0 USEFUL:          0 USELESS:          0
cpu0->cpu0_STLB AVERAGE MISS LATENCY: 692.8 cycles
cpu0->cpu0_L2C TOTAL        ACCESS:    4019744 HIT:    2219201 MISS:    1800543 MSHR_MERGE:     591487
cpu0->cpu0_L2C LOAD         ACCESS:    1019925 HIT:     998494 MISS:      21431 MSHR_MERGE:       5061
cpu0->cpu0_L2C RFO          ACCESS:      32671 HIT:       8309 MISS:      24362 MSHR_MERGE:          0
cpu0->cpu0_L2C PREFETCH     ACCESS:    2917115 HIT:    1172842 MISS:    1744273 MSHR_MERGE:     586426
cpu0->cpu0_L2C WRITE        ACCESS:      36502 HIT:      36462 MISS:         40 MSHR_MERGE:          0
cpu0->cpu0_L2C TRANSLATION  ACCESS:      13531 HIT:       3094 MISS:      10437 MSHR_MERGE:          0
cpu0->cpu0_L2C PREFETCH REQUESTED:    3135537 ISSUED:    2917107 USEFUL:     915976 USELESS:        275
cpu0->cpu0_L2C AVERAGE MISS LATENCY: 158.8 cycles
cpu0->cpu0_L1I TOTAL        ACCESS:   12030630 HIT:   12030630 MISS:          0 MSHR_MERGE:          0
cpu0->cpu0_L1I LOAD         ACCESS:   12030630 HIT:   12030630 MISS:          0 MSHR_MERGE:          0
cpu0->cpu0_L1I RFO          ACCESS:          0 HIT:          0 MISS:          0 MSHR_MERGE:          0
cpu0->cpu0_L1I PREFETCH     ACCESS:          0 HIT:          0 MISS:          0 MSHR_MERGE:          0
cpu0->cpu0_L1I WRITE        ACCESS:          0 HIT:          0 MISS:          0 MSHR_MERGE:          0
cpu0->cpu0_L1I TRANSLATION  ACCESS:          0 HIT:          0 MISS:          0 MSHR_MERGE:          0
cpu0->cpu0_L1I PREFETCH REQUESTED:          0 ISSUED:          0 USEFUL:          0 USELESS:          0
cpu0->cpu0_L1I AVERAGE MISS LATENCY: - cycles
cpu0->cpu0_L1D TOTAL        ACCESS:   16966851 HIT:   15864935 MISS:    1101916 MSHR_MERGE:      35624
cpu0->cpu0_L1D LOAD         ACCESS:   14136109 HIT:   13109779 MISS:    1026330 MSHR_MERGE:       6349
cpu0->cpu0_L1D RFO          ACCESS:          0 HIT:          0 MISS:          0 MSHR_MERGE:          0
cpu0->cpu0_L1D PREFETCH     ACCESS:          0 HIT:          0 MISS:          0 MSHR_MERGE:          0
cpu0->cpu0_L1D WRITE        ACCESS:    2816699 HIT:    2754887 MISS:      61812 MSHR_MERGE:      29032
cpu0->cpu0_L1D TRANSLATION  ACCESS:      14043 HIT:        269 MISS:      13774 MSHR_MERGE:        243
cpu0->cpu0_L1D PREFETCH REQUESTED:          0 ISSUED:          0 USEFUL:          0 USELESS:          0
cpu0->cpu0_L1D AVERAGE MISS LATENCY: 18.26 cycles
cpu0->cpu0_ITLB TOTAL        ACCESS:   10896218 HIT:   10896218 MISS:          0 MSHR_MERGE:          0
cpu0->cpu0_ITLB LOAD         ACCESS:   10896218 HIT:   10896218 MISS:          0 MSHR_MERGE:          0
cpu0->cpu0_ITLB RFO          ACCESS:          0 HIT:          0 MISS:          0 MSHR_MERGE:          0
cpu0->cpu0_ITLB PREFETCH     ACCESS:          0 HIT:          0 MISS:          0 MSHR_MERGE:          0
cpu0->cpu0_ITLB WRITE        ACCESS:          0 HIT:          0 MISS:          0 MSHR_MERGE:          0
cpu0->cpu0_ITLB TRANSLATION  ACCESS:          0 HIT:          0 MISS:          0 MSHR_MERGE:          0
cpu0->cpu0_ITLB PREFETCH REQUESTED:          0 ISSUED:          0 USEFUL:          0 USELESS:          0
cpu0->cpu0_ITLB AVERAGE MISS LATENCY: - cycles
cpu0->cpu0_DTLB TOTAL        ACCESS:   16321843 HIT:   16309073 MISS:      12770 MSHR_MERGE:       5345
cpu0->cpu0_DTLB LOAD         ACCESS:   16321843 HIT:   16309073 MISS:      12770 MSHR_MERGE:       5345
cpu0->cpu0_DTLB RFO          ACCESS:          0 HIT:          0 MISS:          0 MSHR_MERGE:          0
cpu0->cpu0_DTLB PREFETCH     ACCESS:          0 HIT:          0 MISS:          0 MSHR_MERGE:          0
cpu0->cpu0_DTLB WRITE        ACCESS:          0 HIT:          0 MISS:          0 MSHR_MERGE:          0
cpu0->cpu0_DTLB TRANSLATION  ACCESS:          0 HIT:          0 MISS:          0 MSHR_MERGE:          0
cpu0->cpu0_DTLB PREFETCH REQUESTED:          0 ISSUED:          0 USEFUL:          0 USELESS:          0
cpu0->cpu0_DTLB AVERAGE MISS LATENCY: 663.7 cycles
cpu0->LLC TOTAL        ACCESS:    1233514 HIT:     243801 MISS:     989713 MSHR_MERGE:      29122
cpu0->LLC LOAD         ACCESS:      16370 HIT:       6621 MISS:       9749 MSHR_MERGE:         72
cpu0->LLC RFO          ACCESS:      24362 HIT:          0 MISS:      24362 MSHR_MERGE:          0
cpu0->LLC PREFETCH     ACCESS:    1157847 HIT:     212588 MISS:     945259 MSHR_MERGE:      29050
cpu0->LLC WRITE        ACCESS:      24498 HIT:      24442 MISS:         56 MSHR_MERGE:          0
cpu0->LLC TRANSLATION  ACCESS:      10437 HIT:        150 MISS:      10287 MSHR_MERGE:          0
cpu0->LLC PREFETCH REQUESTED:          0 ISSUED:          0 USEFUL:          0 USELESS:          0
cpu0->LLC AVERAGE MISS LATENCY: 170.7 cycles

DRAM Statistics

Channel 0 RQ ROW_BUFFER_HIT:        643
  ROW_BUFFER_MISS:     959878
  AVG DBUS CONGESTED CYCLE: 3.931
Channel 0 WQ ROW_BUFFER_HIT:       1540
  ROW_BUFFER_MISS:      22708
  FULL:          0
Channel 0 REFRESHES ISSUED:       3169
