[VMEM] WARNING: physical memory size is smaller than virtual memory size.
WARNING: option --warmup_instructions is deprecated. Use --warmup-instructions instead.
WARNING: option --simulation_instructions is deprecated. Use --simulation-instructions instead.

*** ChampSim Multicore Out-of-Order Simulator ***
Warmup Instructions: 20000000
Simulation Instructions: 50000000
Number of CPUs: 1
Page size: 8192

Off-chip DRAM Size: 16 GiB Channels: 1 Width: 64-bit Data Rate: 3205 MT/s
Heartbeat CPU 0 instructions: 10000000 cycles: 8243382 heartbeat IPC: 1.213 cumulative IPC: 1.213 (Simulation time: 00 hr 01 min 18 sec)
Heartbeat CPU 0 instructions: 20000000 cycles: 15273910 heartbeat IPC: 1.422 cumulative IPC: 1.309 (Simulation time: 00 hr 02 min 30 sec)
Warmup finished CPU 0 instructions: 20000000 cycles: 15273910 cumulative IPC: 1.309 (Simulation time: 00 hr 02 min 30 sec)
Warmup complete CPU 0 instructions: 20000000 cycles: 15273910 cumulative IPC: 1.309 (Simulation time: 00 hr 02 min 30 sec)
Heartbeat CPU 0 instructions: 30000002 cycles: 41624584 heartbeat IPC: 0.3795 cumulative IPC: 0.3795 (Simulation time: 00 hr 05 min 03 sec)
Heartbeat CPU 0 instructions: 40000004 cycles: 68525033 heartbeat IPC: 0.3717 cumulative IPC: 0.3756 (Simulation time: 00 hr 07 min 47 sec)
Heartbeat CPU 0 instructions: 50000004 cycles: 95509508 heartbeat IPC: 0.3706 cumulative IPC: 0.3739 (Simulation time: 00 hr 10 min 29 sec)
Heartbeat CPU 0 instructions: 60000007 cycles: 122087641 heartbeat IPC: 0.3762 cumulative IPC: 0.3745 (Simulation time: 00 hr 13 min 08 sec)
Simulation finished CPU 0 instructions: 50000000 cycles: 132299208 cumulative IPC: 0.3779 (Simulation time: 00 hr 16 min 15 sec)
Simulation complete CPU 0 instructions: 50000000 cycles: 132299208 cumulative IPC: 0.3779 (Simulation time: 00 hr 16 min 15 sec)

ChampSim completed all CPUs

=== Simulation ===
CPU 0 runs traces/620.omnetpp_s-874B.champsimtrace.xz

Region of Interest Statistics

CPU 0 cumulative IPC: 0.3779 instructions: 50000000 cycles: 132299208
CPU 0 Branch Prediction Accuracy: 96.16% MPKI: 7.99 Average ROB Occupancy at Mispredict: 58.24
Branch type MPKI
BRANCH_DIRECT_JUMP: 0.9384
BRANCH_INDIRECT: 0.1208
BRANCH_CONDITIONAL: 5.805
BRANCH_DIRECT_CALL: 0.00236
BRANCH_INDIRECT_CALL: 0.7298
BRANCH_RETURN: 0.3936

cpu0->cpu0_STLB TOTAL        ACCESS:     828021 HIT:     690926 MISS:     137095 MSHR_MERGE:          0
cpu0->cpu0_STLB LOAD         ACCESS:     828021 HIT:     690926 MISS:     137095 MSHR_MERGE:          0
cpu0->cpu0_STLB RFO          ACCESS:          0 HIT:          0 MISS:          0 MSHR_MERGE:          0
cpu0->cpu0_STLB PREFETCH     ACCESS:          0 HIT:          0 MISS:          0 MSHR_MERGE:          0
cpu0->cpu0_STLB WRITE        ACCESS:          0 HIT:          0 MISS:          0 MSHR_MERGE:          0
cpu0->cpu0_STLB TRANSLATION  ACCESS:          0 HIT:          0 MISS:          0 MSHR_MERGE:          0
cpu0->cpu0_STLB PREFETCH REQUESTED:          0 ISSUED:          0 USEFUL:          0 USELESS:          0
cpu0->cpu0_STLB AVERAGE MISS LATENCY: 348.9 cycles
cpu0->cpu0_L2C TOTAL        ACCESS:    3521442 HIT:    1559667 MISS:    1961775 MSHR_MERGE:     205077
cpu0->cpu0_L2C LOAD         ACCESS:     933724 HIT:     382522 MISS:     551202 MSHR_MERGE:      22524
cpu0->cpu0_L2C RFO          ACCESS:     139257 HIT:      70186 MISS:      69071 MSHR_MERGE:       1483
cpu0->cpu0_L2C PREFETCH     ACCESS:    1645438 HIT:     585085 MISS:    1060353 MSHR_MERGE:     181070
cpu0->cpu0_L2C WRITE        ACCESS:     509684 HIT:     505913 MISS:       3771 MSHR_MERGE:          0
cpu0->cpu0_L2C TRANSLATION  ACCESS:     293339 HIT:      15961 MISS:     277378 MSHR_MERGE:          0
cpu0->cpu0_L2C PREFETCH REQUESTED:    1647352 ISSUED:    1645438 USEFUL:     217593 USELESS:     660147
cpu0->cpu0_L2C AVERAGE MISS LATENCY: 124.7 cycles
cpu0->cpu0_L1I TOTAL        ACCESS:    7832696 HIT:    7807307 MISS:      25389 MSHR_MERGE:       6929
cpu0->cpu0_L1I LOAD         ACCESS:    7832696 HIT:    7807307 MISS:      25389 MSHR_MERGE:       6929
cpu0->cpu0_L1I RFO          ACCESS:          0 HIT:          0 MISS:          0 MSHR_MERGE:          0
cpu0->cpu0_L1I PREFETCH     ACCESS:          0 HIT:          0 MISS:          0 MSHR_MERGE:          0
cpu0->cpu0_L1I WRITE        ACCESS:          0 HIT:          0 MISS:          0 MSHR_MERGE:          0
cpu0->cpu0_L1I TRANSLATION  ACCESS:          0 HIT:          0 MISS:          0 MSHR_MERGE:          0
cpu0->cpu0_L1I PREFETCH REQUESTED:          0 ISSUED:          0 USEFUL:          0 USELESS:          0
cpu0->cpu0_L1I AVERAGE MISS LATENCY: 24.54 cycles
cpu0->cpu0_L1D TOTAL        ACCESS:   18744906 HIT:   17041115 MISS:    1703791 MSHR_MERGE:     355922
cpu0->cpu0_L1D LOAD         ACCESS:    9408763 HIT:    8316258 MISS:    1092505 MSHR_MERGE:     177240
cpu0->cpu0_L1D RFO          ACCESS:          0 HIT:          0 MISS:          0 MSHR_MERGE:          0
cpu0->cpu0_L1D PREFETCH     ACCESS:          0 HIT:          0 MISS:          0 MSHR_MERGE:          0
cpu0->cpu0_L1D WRITE        ACCESS:    9034893 HIT:    8717278 MISS:     317615 MSHR_MERGE:     178350
cpu0->cpu0_L1D TRANSLATION  ACCESS:     301250 HIT:       7579 MISS:     293671 MSHR_MERGE:        332
cpu0->cpu0_L1D PREFETCH REQUESTED:          0 ISSUED:          0 USEFUL:          0 USELESS:          0
cpu0->cpu0_L1D AVERAGE MISS LATENCY: 91.82 cycles
cpu0->cpu0_ITLB TOTAL        ACCESS:    7167773 HIT:    7167569 MISS:        204 MSHR_MERGE:        100
cpu0->cpu0_ITLB LOAD         ACCESS:    7167773 HIT:    7167569 MISS:        204 MSHR_MERGE:        100
cpu0->cpu0_ITLB RFO          ACCESS:          0 HIT:          0 MISS:          0 MSHR_MERGE:          0
cpu0->cpu0_ITLB PREFETCH     ACCESS:          0 HIT:          0 MISS:          0 MSHR_MERGE:          0
cpu0->cpu0_ITLB WRITE        ACCESS:          0 HIT:          0 MISS:          0 MSHR_MERGE:          0
cpu0->cpu0_ITLB TRANSLATION  ACCESS:          0 HIT:          0 MISS:          0 MSHR_MERGE:          0
cpu0->cpu0_ITLB PREFETCH REQUESTED:          0 ISSUED:          0 USEFUL:          0 USELESS:          0
cpu0->cpu0_ITLB AVERAGE MISS LATENCY: 188.4 cycles
cpu0->cpu0_DTLB TOTAL        ACCESS:   17168753 HIT:   16223625 MISS:     945128 MSHR_MERGE:     117211
cpu0->cpu0_DTLB LOAD         ACCESS:   17168753 HIT:   16223625 MISS:     945128 MSHR_MERGE:     117211
cpu0->cpu0_DTLB RFO          ACCESS:          0 HIT:          0 MISS:          0 MSHR_MERGE:          0
cpu0->cpu0_DTLB PREFETCH     ACCESS:          0 HIT:          0 MISS:          0 MSHR_MERGE:          0
cpu0->cpu0_DTLB WRITE        ACCESS:          0 HIT:          0 MISS:          0 MSHR_MERGE:          0
cpu0->cpu0_DTLB TRANSLATION  ACCESS:          0 HIT:          0 MISS:          0 MSHR_MERGE:          0
cpu0->cpu0_DTLB PREFETCH REQUESTED:          0 ISSUED:          0 USEFUL:          0 USELESS:          0
cpu0->cpu0_DTLB AVERAGE MISS LATENCY: 61.92 cycles
cpu0->LLC TOTAL        ACCESS:    2157777 HIT:     981390 MISS:    1176387 MSHR_MERGE:        226
cpu0->LLC LOAD         ACCESS:     528678 HIT:     192526 MISS:     336152 MSHR_MERGE:          0
cpu0->LLC RFO          ACCESS:      67588 HIT:      24327 MISS:      43261 MSHR_MERGE:          3
cpu0->LLC PREFETCH     ACCESS:     879282 HIT:     316546 MISS:     562736 MSHR_MERGE:        223
cpu0->LLC WRITE        ACCESS:     404851 HIT:     404008 MISS:        843 MSHR_MERGE:          0
cpu0->LLC TRANSLATION  ACCESS:     277378 HIT:      43983 MISS:     233395 MSHR_MERGE:          0
cpu0->LLC PREFETCH REQUESTED:          0 ISSUED:          0 USEFUL:          0 USELESS:          0
cpu0->LLC AVERAGE MISS LATENCY: 155.3 cycles

DRAM Statistics

Channel 0 RQ ROW_BUFFER_HIT:      13802
  ROW_BUFFER_MISS:    1161468
  AVG DBUS CONGESTED CYCLE: 19.24
Channel 0 WQ ROW_BUFFER_HIT:      69521
  ROW_BUFFER_MISS:     191752
  FULL:          0
Channel 0 REFRESHES ISSUED:      11025
