[VMEM] WARNING: physical memory size is smaller than virtual memory size.
WARNING: option --warmup_instructions is deprecated. Use --warmup-instructions instead.
WARNING: option --simulation_instructions is deprecated. Use --simulation-instructions instead.

*** ChampSim Multicore Out-of-Order Simulator ***
Warmup Instructions: 20000000
Simulation Instructions: 50000000
Number of CPUs: 1
Page size: 8192

Off-chip DRAM Size: 16 GiB Channels: 1 Width: 64-bit Data Rate: 3205 MT/s
Heartbeat CPU 0 instructions: 10000000 cycles: 4304086 heartbeat IPC: 2.323 cumulative IPC: 2.323 (Simulation time: 00 hr 00 min 45 sec)
Heartbeat CPU 0 instructions: 20000000 cycles: 8600012 heartbeat IPC: 2.328 cumulative IPC: 2.326 (Simulation time: 00 hr 01 min 29 sec)
Warmup finished CPU 0 instructions: 20000000 cycles: 8600012 cumulative IPC: 2.326 (Simulation time: 00 hr 01 min 29 sec)
Warmup complete CPU 0 instructions: 20000000 cycles: 8600012 cumulative IPC: 2.326 (Simulation time: 00 hr 01 min 29 sec)
Heartbeat CPU 0 instructions: 30000003 cycles: 17981623 heartbeat IPC: 1.066 cumulative IPC: 1.066 (Simulation time: 00 hr 02 min 37 sec)
Heartbeat CPU 0 instructions: 40000003 cycles: 27395585 heartbeat IPC: 1.062 cumulative IPC: 1.064 (Simulation time: 00 hr 03 min 45 sec)
Heartbeat CPU 0 instructions: 50000003 cycles: 36807358 heartbeat IPC: 1.062 cumulative IPC: 1.064 (Simulation time: 00 hr 04 min 54 sec)
Heartbeat CPU 0 instructions: 60000005 cycles: 46213639 heartbeat IPC: 1.063 cumulative IPC: 1.063 (Simulation time: 00 hr 06 min 02 sec)
Simulation finished CPU 0 instructions: 50000000 cycles: 47008338 cumulative IPC: 1.064 (Simulation time: 00 hr 07 min 12 sec)
Simulation complete CPU 0 instructions: 50000000 cycles: 47008338 cumulative IPC: 1.064 (Simulation time: 00 hr 07 min 12 sec)

ChampSim completed all CPUs

=== Simulation ===
CPU 0 runs traces/603.bwaves_s-1740B.champsimtrace.xz

Region of Interest Statistics

CPU 0 cumulative IPC: 1.064 instructions: 50000000 cycles: 47008338
CPU 0 Branch Prediction Accuracy: 99.97% MPKI: 0.00734 Average ROB Occupancy at Mispredict: 190
Branch type MPKI
BRANCH_DIRECT_JUMP: 0
BRANCH_INDIRECT: 0
BRANCH_CONDITIONAL: 0.00734
BRANCH_DIRECT_CALL: 0
BRANCH_INDIRECT_CALL: 0
BRANCH_RETURN: 0

cpu0->cpu0_STLB TOTAL        ACCESS:       7425 HIT:        365 MISS:       7060 MSHR_MERGE:          0
cpu0->cpu0_STLB LOAD         ACCESS:       7425 HIT:        365 MISS:       7060 MSHR_MERGE:          0
cpu0->cpu0_STLB RFO          ACCESS:          0 HIT:          0 MISS:          0 MSHR_MERGE:          0
cpu0->cpu0_STLB PREFETCH     ACCESS:          0 HIT:          0 MISS:          0 MSHR_MERGE:          0
cpu0->cpu0_STLB WRITE        ACCESS:          0 HIT:          0 MISS:          0 MSHR_MERGE:          0
cpu0->cpu0_STLB TRANSLATION  ACCESS:          0 HIT:          0 MISS:          0 MSHR_MERGE:          0
cpu0->cpu0_STLB PREFETCH REQUESTED:          0 ISSUED:          0 USEFUL:          0 USELESS:          0
cpu0->cpu0_STLB AVERAGE MISS LATENCY: 799.3 cycles
cpu0->cpu0_L2C TOTAL        ACCESS:    3029267 HIT:    1720769 MISS:    1308498 MSHR_MERGE:     340787
cpu0->cpu0_L2C LOAD         ACCESS:    1019075 HIT:     856728 MISS:     162347 MSHR_MERGE:     140550
cpu0->cpu0_L2C RFO          ACCESS:      32548 HIT:       8186 MISS:      24362 MSHR_MERGE:          0
cpu0->cpu0_L2C PREFETCH     ACCESS:    1927884 HIT:     816587 MISS:    1111297 MSHR_MERGE:     200237
cpu0->cpu0_L2C WRITE        ACCESS:      36248 HIT:      36195 MISS:         53 MSHR_MERGE:          0
cpu0->cpu0_L2C TRANSLATION  ACCESS:      13512 HIT:       3073 MISS:      10439 MSHR_MERGE:          0
cpu0->cpu0_L2C PREFETCH REQUESTED:    1964288 ISSUED:    1927876 USEFUL:     910755 USELESS:        307
cpu0->cpu0_L2C AVERAGE MISS LATENCY: 190.8 cycles
cpu0->cpu0_L1I TOTAL        ACCESS:   12007510 HIT:   12007510 MISS:          0 MSHR_MERGE:          0
cpu0->cpu0_L1I LOAD         ACCESS:   12007510 HIT:   12007510 MISS:          0 MSHR_MERGE:          0
cpu0->cpu0_L1I RFO          ACCESS:          0 HIT:          0 MISS:          0 MSHR_MERGE:          0
cpu0->cpu0_L1I PREFETCH     ACCESS:          0 HIT:          0 MISS:          0 MSHR_MERGE:          0
cpu0->cpu0_L1I WRITE        ACCESS:          0 HIT:          0 MISS:          0 MSHR_MERGE:          0
cpu0->cpu0_L1I TRANSLATION  ACCESS:          0 HIT:          0 MISS:          0 MSHR_MERGE:          0
cpu0->cpu0_L1I PREFETCH REQUESTED:          0 ISSUED:          0 USEFUL:          0 USELESS:          0
cpu0->cpu0_L1I AVERAGE MISS LATENCY: - cycles
cpu0->cpu0_L1D TOTAL        ACCESS:   17025307 HIT:   15850264 MISS:    1175043 MSHR_MERGE:     109756
cpu0->cpu0_L1D LOAD         ACCESS:   14194569 HIT:   13117413 MISS:    1077156 MSHR_MERGE:      58007
cpu0->cpu0_L1D RFO          ACCESS:          0 HIT:          0 MISS:          0 MSHR_MERGE:          0
cpu0->cpu0_L1D PREFETCH     ACCESS:          0 HIT:          0 MISS:          0 MSHR_MERGE:          0
cpu0->cpu0_L1D WRITE        ACCESS:    2816699 HIT:    2732527 MISS:      84172 MSHR_MERGE:      51546
cpu0->cpu0_L1D TRANSLATION  ACCESS:      14039 HIT:        324 MISS:      13715 MSHR_MERGE:        203
cpu0->cpu0_L1D PREFETCH REQUESTED:          0 ISSUED:          0 USEFUL:          0 USELESS:          0
cpu0->cpu0_L1D AVERAGE MISS LATENCY: 57.69 cycles
cpu0->cpu0_ITLB TOTAL        ACCESS:   10873245 HIT:   10873245 MISS:          0 MSHR_MERGE:          0
cpu0->cpu0_ITLB LOAD         ACCESS:   10873245 HIT:   10873245 MISS:          0 MSHR_MERGE:          0
cpu0->cpu0_ITLB RFO          ACCESS:          0 HIT:          0 MISS:          0 MSHR_MERGE:          0
cpu0->cpu0_ITLB PREFETCH     ACCESS:          0 HIT:          0 MISS:          0 MSHR_MERGE:          0
cpu0->cpu0_ITLB WRITE        ACCESS:          0 HIT:          0 MISS:          0 MSHR_MERGE:          0
cpu0->cpu0_ITLB TRANSLATION  ACCESS:          0 HIT:          0 MISS:          0 MSHR_MERGE:          0
cpu0->cpu0_ITLB PREFETCH REQUESTED:          0 ISSUED:          0 USEFUL:          0 USELESS:          0
cpu0->cpu0_ITLB AVERAGE MISS LATENCY: - cycles
cpu0->cpu0_DTLB TOTAL        ACCESS:   16366856 HIT:   16354069 MISS:      12787 MSHR_MERGE:       5362
cpu0->cpu0_DTLB LOAD         ACCESS:   16366856 HIT:   16354069 MISS:      12787 MSHR_MERGE:       5362
cpu0->cpu0_DTLB RFO          ACCESS:          0 HIT:          0 MISS:          0 MSHR_MERGE:          0
cpu0->cpu0_DTLB PREFETCH     ACCESS:          0 HIT:          0 MISS:          0 MSHR_MERGE:          0
cpu0->cpu0_DTLB WRITE        ACCESS:          0 HIT:          0 MISS:          0 MSHR_MERGE:          0
cpu0->cpu0_DTLB TRANSLATION  ACCESS:          0 HIT:          0 MISS:          0 MSHR_MERGE:          0
cpu0->cpu0_DTLB PREFETCH REQUESTED:          0 ISSUED:          0 USEFUL:          0 USELESS:          0
cpu0->cpu0_DTLB AVERAGE MISS LATENCY: 764.9 cycles
cpu0->LLC TOTAL        ACCESS:     992213 HIT:       4496 MISS:     987717 MSHR_MERGE:          0
cpu0->LLC LOAD         ACCESS:      21797 HIT:        258 MISS:      21539 MSHR_MERGE:          0
cpu0->LLC RFO          ACCESS:      24362 HIT:          0 MISS:      24362 MSHR_MERGE:          0
cpu0->LLC PREFETCH     ACCESS:     911060 HIT:       1688 MISS:     909372 MSHR_MERGE:          0
cpu0->LLC WRITE        ACCESS:      24555 HIT:       2541 MISS:      22014 MSHR_MERGE:          0
cpu0->LLC TRANSLATION  ACCESS:      10439 HIT:          9 MISS:      10430 MSHR_MERGE:          0
cpu0->LLC PREFETCH REQUESTED:          0 ISSUED:          0 USEFUL:          0 USELESS:          0
cpu0->LLC AVERAGE MISS LATENCY: 177.9 cycles

DRAM Statistics

Channel 0 RQ ROW_BUFFER_HIT:        731
  ROW_BUFFER_MISS:     964971
  AVG DBUS CONGESTED CYCLE: 5.862
Channel 0 WQ ROW_BUFFER_HIT:       2166
  ROW_BUFFER_MISS:      22207
  FULL:          0
Channel 0 REFRESHES ISSUED:       3918
