[VMEM] WARNING: physical memory size is smaller than virtual memory size.
WARNING: option --warmup_instructions is deprecated. Use --warmup-instructions instead.
WARNING: option --simulation_instructions is deprecated. Use --simulation-instructions instead.

*** ChampSim Multicore Out-of-Order Simulator ***
Warmup Instructions: 20000000
Simulation Instructions: 50000000
Number of CPUs: 1
Page size: 8192

Off-chip DRAM Size: 32 GiB Channels: 2 Width: 64-bit Data Rate: 3205 MT/s
Heartbeat CPU 0 instructions: 10000000 cycles: 4304746 heartbeat IPC: 2.323 cumulative IPC: 2.323 (Simulation time: 00 hr 00 min 50 sec)
Heartbeat CPU 0 instructions: 20000000 cycles: 8601511 heartbeat IPC: 2.327 cumulative IPC: 2.325 (Simulation time: 00 hr 01 min 40 sec)
Warmup finished CPU 0 instructions: 20000000 cycles: 8601511 cumulative IPC: 2.325 (Simulation time: 00 hr 01 min 40 sec)
Warmup complete CPU 0 instructions: 20000000 cycles: 8601511 cumulative IPC: 2.325 (Simulation time: 00 hr 01 min 40 sec)
Heartbeat CPU 0 instructions: 30000003 cycles: 17072277 heartbeat IPC: 1.181 cumulative IPC: 1.181 (Simulation time: 00 hr 02 min 59 sec)
Heartbeat CPU 0 instructions: 40000003 cycles: 25542450 heartbeat IPC: 1.181 cumulative IPC: 1.181 (Simulation time: 00 hr 04 min 15 sec)
Heartbeat CPU 0 instructions: 50000003 cycles: 33979937 heartbeat IPC: 1.185 cumulative IPC: 1.182 (Simulation time: 00 hr 05 min 34 sec)
Heartbeat CPU 0 instructions: 60000005 cycles: 42418064 heartbeat IPC: 1.185 cumulative IPC: 1.183 (Simulation time: 00 hr 06 min 53 sec)
Simulation finished CPU 0 instructions: 50000000 cycles: 42282703 cumulative IPC: 1.183 (Simulation time: 00 hr 08 min 12 sec)
Simulation complete CPU 0 instructions: 50000000 cycles: 42282703 cumulative IPC: 1.183 (Simulation time: 00 hr 08 min 12 sec)

ChampSim completed all CPUs

=== Simulation ===
CPU 0 runs traces/603.bwaves_s-1740B.champsimtrace.xz

Region of Interest Statistics

CPU 0 cumulative IPC: 1.183 instructions: 50000000 cycles: 42282703
CPU 0 Branch Prediction Accuracy: 99.97% MPKI: 0.00734 Average ROB Occupancy at Mispredict: 189.9
Branch type MPKI
BRANCH_DIRECT_JUMP: 0
BRANCH_INDIRECT: 0
BRANCH_CONDITIONAL: 0.00734
BRANCH_DIRECT_CALL: 0
BRANCH_INDIRECT_CALL: 0
BRANCH_RETURN: 0

cpu0->cpu0_STLB TOTAL        ACCESS:       7425 HIT:        365 MISS:       7060 MSHR_MERGE:          0
cpu0->cpu0_STLB LOAD         ACCESS:       7425 HIT:        365 MISS:       7060 MSHR_MERGE:          0
cpu0->cpu0_STLB RFO          ACCESS:          0 HIT:          0 MISS:          0 MSHR_MERGE:          0
cpu0->cpu0_STLB PREFETCH     ACCESS:          0 HIT:          0 MISS:          0 MSHR_MERGE:          0
cpu0->cpu0_STLB WRITE        ACCESS:          0 HIT:          0 MISS:          0 MSHR_MERGE:          0
cpu0->cpu0_STLB TRANSLATION  ACCESS:          0 HIT:          0 MISS:          0 MSHR_MERGE:          0
cpu0->cpu0_STLB PREFETCH REQUESTED:          0 ISSUED:          0 USEFUL:          0 USELESS:          0
cpu0->cpu0_STLB AVERAGE MISS LATENCY: 695.3 cycles
cpu0->cpu0_L2C TOTAL        ACCESS:    3495010 HIT:    2167028 MISS:    1327982 MSHR_MERGE:     336768
cpu0->cpu0_L2C LOAD         ACCESS:    1020295 HIT:     909005 MISS:     111290 MSHR_MERGE:      88459
cpu0->cpu0_L2C RFO          ACCESS:      32855 HIT:       8493 MISS:      24362 MSHR_MERGE:          0
cpu0->cpu0_L2C PREFETCH     ACCESS:    2391743 HIT:    1210161 MISS:    1181582 MSHR_MERGE:     248309
cpu0->cpu0_L2C WRITE        ACCESS:      36598 HIT:      36286 MISS:        312 MSHR_MERGE:          0
cpu0->cpu0_L2C TRANSLATION  ACCESS:      13519 HIT:       3083 MISS:      10436 MSHR_MERGE:          0
cpu0->cpu0_L2C PREFETCH REQUESTED:    2633221 ISSUED:    2391729 USEFUL:     910896 USELESS:      22365
cpu0->cpu0_L2C AVERAGE MISS LATENCY: 117.9 cycles
cpu0->cpu0_L1I TOTAL        ACCESS:   12003207 HIT:   12003207 MISS:          0 MSHR_MERGE:          0
cpu0->cpu0_L1I LOAD         ACCESS:   12003207 HIT:   12003207 MISS:          0 MSHR_MERGE:          0
cpu0->cpu0_L1I RFO          ACCESS:          0 HIT:          0 MISS:          0 MSHR_MERGE:          0
cpu0->cpu0_L1I PREFETCH     ACCESS:          0 HIT:          0 MISS:          0 MSHR_MERGE:          0
cpu0->cpu0_L1I WRITE        ACCESS:          0 HIT:          0 MISS:          0 MSHR_MERGE:          0
cpu0->cpu0_L1I TRANSLATION  ACCESS:          0 HIT:          0 MISS:          0 MSHR_MERGE:          0
cpu0->cpu0_L1I PREFETCH REQUESTED:          0 ISSUED:          0 USEFUL:          0 USELESS:          0
cpu0->cpu0_L1I AVERAGE MISS LATENCY: - cycles
cpu0->cpu0_L1D TOTAL        ACCESS:   17029593 HIT:   15886855 MISS:    1142738 MSHR_MERGE:      75912
cpu0->cpu0_L1D LOAD         ACCESS:   14198859 HIT:   13124494 MISS:    1074365 MSHR_MERGE:      54009
cpu0->cpu0_L1D RFO          ACCESS:          0 HIT:          0 MISS:          0 MSHR_MERGE:          0
cpu0->cpu0_L1D PREFETCH     ACCESS:          0 HIT:          0 MISS:          0 MSHR_MERGE:          0
cpu0->cpu0_L1D WRITE        ACCESS:    2816699 HIT:    2762087 MISS:      54612 MSHR_MERGE:      21661
cpu0->cpu0_L1D TRANSLATION  ACCESS:      14035 HIT:        274 MISS:      13761 MSHR_MERGE:        242
cpu0->cpu0_L1D PREFETCH REQUESTED:          0 ISSUED:          0 USEFUL:          0 USELESS:          0
cpu0->cpu0_L1D AVERAGE MISS LATENCY: 34.15 cycles
cpu0->cpu0_ITLB TOTAL        ACCESS:   10869253 HIT:   10869253 MISS:          0 MSHR_MERGE:          0
cpu0->cpu0_ITLB LOAD         ACCESS:   10869253 HIT:   10869253 MISS:          0 MSHR_MERGE:          0
cpu0->cpu0_ITLB RFO          ACCESS:          0 HIT:          0 MISS:          0 MSHR_MERGE:          0
cpu0->cpu0_ITLB PREFETCH     ACCESS:          0 HIT:          0 MISS:          0 MSHR_MERGE:          0
cpu0->cpu0_ITLB WRITE        ACCESS:          0 HIT:          0 MISS:          0 MSHR_MERGE:          0
cpu0->cpu0_ITLB TRANSLATION  ACCESS:          0 HIT:          0 MISS:          0 MSHR_MERGE:          0
cpu0->cpu0_ITLB PREFETCH REQUESTED:          0 ISSUED:          0 USEFUL:          0 USELESS:          0
cpu0->cpu0_ITLB AVERAGE MISS LATENCY: - cycles
cpu0->cpu0_DTLB TOTAL        ACCESS:   16374081 HIT:   16361545 MISS:      12536 MSHR_MERGE:       5111
cpu0->cpu0_DTLB LOAD         ACCESS:   16374081 HIT:   16361545 MISS:      12536 MSHR_MERGE:       5111
cpu0->cpu0_DTLB RFO          ACCESS:          0 HIT:          0 MISS:          0 MSHR_MERGE:          0
cpu0->cpu0_DTLB PREFETCH     ACCESS:          0 HIT:          0 MISS:          0 MSHR_MERGE:          0
cpu0->cpu0_DTLB WRITE        ACCESS:          0 HIT:          0 MISS:          0 MSHR_MERGE:          0
cpu0->cpu0_DTLB TRANSLATION  ACCESS:          0 HIT:          0 MISS:          0 MSHR_MERGE:          0
cpu0->cpu0_DTLB PREFETCH REQUESTED:          0 ISSUED:          0 USEFUL:          0 USELESS:          0
cpu0->cpu0_DTLB AVERAGE MISS LATENCY: 666.1 cycles
cpu0->LLC TOTAL        ACCESS:    1015641 HIT:       4773 MISS:    1010868 MSHR_MERGE:          0
cpu0->LLC LOAD         ACCESS:      22831 HIT:        291 MISS:      22540 MSHR_MERGE:          0
cpu0->LLC RFO          ACCESS:      24362 HIT:          0 MISS:      24362 MSHR_MERGE:          0
cpu0->LLC PREFETCH     ACCESS:     933273 HIT:       1443 MISS:     931830 MSHR_MERGE:          0
cpu0->LLC WRITE        ACCESS:      24739 HIT:       3033 MISS:      21706 MSHR_MERGE:          0
cpu0->LLC TRANSLATION  ACCESS:      10436 HIT:          6 MISS:      10430 MSHR_MERGE:          0
cpu0->LLC PREFETCH REQUESTED:          0 ISSUED:          0 USEFUL:          0 USELESS:          0
cpu0->LLC AVERAGE MISS LATENCY: 111.9 cycles

DRAM Statistics

Channel 0 RQ ROW_BUFFER_HIT:        609
  ROW_BUFFER_MISS:     493917
  AVG DBUS CONGESTED CYCLE: 6.09
Channel 0 WQ ROW_BUFFER_HIT:       1501
  ROW_BUFFER_MISS:      10673
  FULL:          0
Channel 0 REFRESHES ISSUED:       3524

Channel 1 RQ ROW_BUFFER_HIT:        626
  ROW_BUFFER_MISS:     494010
  AVG DBUS CONGESTED CYCLE: 6.265
Channel 1 WQ ROW_BUFFER_HIT:       1633
  ROW_BUFFER_MISS:      10595
  FULL:          0
Channel 1 REFRESHES ISSUED:       3524
