[VMEM] WARNING: physical memory size is smaller than virtual memory size.
WARNING: option --warmup_instructions is deprecated. Use --warmup-instructions instead.
WARNING: option --simulation_instructions is deprecated. Use --simulation-instructions instead.

*** ChampSim Multicore Out-of-Order Simulator ***
Warmup Instructions: 20000000
Simulation Instructions: 50000000
Number of CPUs: 1
Page size: 8192

Off-chip DRAM Size: 16 GiB Channels: 1 Width: 64-bit Data Rate: 3205 MT/s
Heartbeat CPU 0 instructions: 10000000 cycles: 4304300 heartbeat IPC: 2.323 cumulative IPC: 2.323 (Simulation time: 00 hr 00 min 47 sec)
Heartbeat CPU 0 instructions: 20000000 cycles: 8600218 heartbeat IPC: 2.328 cumulative IPC: 2.326 (Simulation time: 00 hr 01 min 35 sec)
Warmup finished CPU 0 instructions: 20000000 cycles: 8600218 cumulative IPC: 2.326 (Simulation time: 00 hr 01 min 35 sec)
Warmup complete CPU 0 instructions: 20000000 cycles: 8600218 cumulative IPC: 2.326 (Simulation time: 00 hr 01 min 35 sec)
Heartbeat CPU 0 instructions: 30000003 cycles: 16468206 heartbeat IPC: 1.271 cumulative IPC: 1.271 (Simulation time: 00 hr 02 min 44 sec)
Heartbeat CPU 0 instructions: 40000004 cycles: 24339331 heartbeat IPC: 1.27 cumulative IPC: 1.271 (Simulation time: 00 hr 03 min 51 sec)
Heartbeat CPU 0 instructions: 50000007 cycles: 32186426 heartbeat IPC: 1.274 cumulative IPC: 1.272 (Simulation time: 00 hr 04 min 58 sec)
Heartbeat CPU 0 instructions: 60000009 cycles: 40046943 heartbeat IPC: 1.272 cumulative IPC: 1.272 (Simulation time: 00 hr 06 min 06 sec)
Simulation finished CPU 0 instructions: 50000001 cycles: 39329971 cumulative IPC: 1.271 (Simulation time: 00 hr 07 min 12 sec)
Simulation complete CPU 0 instructions: 50000001 cycles: 39329971 cumulative IPC: 1.271 (Simulation time: 00 hr 07 min 12 sec)

ChampSim completed all CPUs

=== Simulation ===
CPU 0 runs traces/603.bwaves_s-1740B.champsimtrace.xz

Region of Interest Statistics

CPU 0 cumulative IPC: 1.271 instructions: 50000001 cycles: 39329971
CPU 0 Branch Prediction Accuracy: 99.97% MPKI: 0.00734 Average ROB Occupancy at Mispredict: 190
Branch type MPKI
BRANCH_DIRECT_JUMP: 0
BRANCH_INDIRECT: 0
BRANCH_CONDITIONAL: 0.00734
BRANCH_DIRECT_CALL: 0
BRANCH_INDIRECT_CALL: 0
BRANCH_RETURN: 0

cpu0->cpu0_STLB TOTAL        ACCESS:       7425 HIT:        365 MISS:       7060 MSHR_MERGE:          0
cpu0->cpu0_STLB LOAD         ACCESS:       7425 HIT:        365 MISS:       7060 MSHR_MERGE:          0
cpu0->cpu0_STLB RFO          ACCESS:          0 HIT:          0 MISS:          0 MSHR_MERGE:          0
cpu0->cpu0_STLB PREFETCH     ACCESS:          0 HIT:          0 MISS:          0 MSHR_MERGE:          0
cpu0->cpu0_STLB WRITE        ACCESS:          0 HIT:          0 MISS:          0 MSHR_MERGE:          0
cpu0->cpu0_STLB TRANSLATION  ACCESS:          0 HIT:          0 MISS:          0 MSHR_MERGE:          0
cpu0->cpu0_STLB PREFETCH REQUESTED:          0 ISSUED:          0 USEFUL:          0 USELESS:          0
cpu0->cpu0_STLB AVERAGE MISS LATENCY: 696.6 cycles
cpu0->cpu0_L2C TOTAL        ACCESS:    4019038 HIT:    2154094 MISS:    1864944 MSHR_MERGE:     630536
cpu0->cpu0_L2C LOAD         ACCESS:    1020339 HIT:     975055 MISS:      45284 MSHR_MERGE:      27292
cpu0->cpu0_L2C RFO          ACCESS:      32764 HIT:       8402 MISS:      24362 MSHR_MERGE:          0
cpu0->cpu0_L2C PREFETCH     ACCESS:    2915838 HIT:    1131035 MISS:    1784803 MSHR_MERGE:     603244
cpu0->cpu0_L2C WRITE        ACCESS:      36570 HIT:      36534 MISS:         36 MSHR_MERGE:          0
cpu0->cpu0_L2C TRANSLATION  ACCESS:      13527 HIT:       3068 MISS:      10459 MSHR_MERGE:          0
cpu0->cpu0_L2C PREFETCH REQUESTED:    3146271 ISSUED:    2915830 USEFUL:     914920 USELESS:        259
cpu0->cpu0_L2C AVERAGE MISS LATENCY: 137.5 cycles
cpu0->cpu0_L1I TOTAL        ACCESS:   12001605 HIT:   12001605 MISS:          0 MSHR_MERGE:          0
cpu0->cpu0_L1I LOAD         ACCESS:   12001605 HIT:   12001605 MISS:          0 MSHR_MERGE:          0
cpu0->cpu0_L1I RFO          ACCESS:          0 HIT:          0 MISS:          0 MSHR_MERGE:          0
cpu0->cpu0_L1I PREFETCH     ACCESS:          0 HIT:          0 MISS:          0 MSHR_MERGE:          0
cpu0->cpu0_L1I WRITE        ACCESS:          0 HIT:          0 MISS:          0 MSHR_MERGE:          0
cpu0->cpu0_L1I TRANSLATION  ACCESS:          0 HIT:          0 MISS:          0 MSHR_MERGE:          0
cpu0->cpu0_L1I PREFETCH REQUESTED:          0 ISSUED:          0 USEFUL:          0 USELESS:          0
cpu0->cpu0_L1I AVERAGE MISS LATENCY: - cycles
cpu0->cpu0_L1D TOTAL        ACCESS:   16976312 HIT:   15872209 MISS:    1104103 MSHR_MERGE:      37318
cpu0->cpu0_L1D LOAD         ACCESS:   14145555 HIT:   13115494 MISS:    1030061 MSHR_MERGE:       9652
cpu0->cpu0_L1D RFO          ACCESS:          0 HIT:          0 MISS:          0 MSHR_MERGE:          0
cpu0->cpu0_L1D PREFETCH     ACCESS:          0 HIT:          0 MISS:          0 MSHR_MERGE:          0
cpu0->cpu0_L1D WRITE        ACCESS:    2816699 HIT:    2756414 MISS:      60285 MSHR_MERGE:      27436
cpu0->cpu0_L1D TRANSLATION  ACCESS:      14058 HIT:        301 MISS:      13757 MSHR_MERGE:        230
cpu0->cpu0_L1D PREFETCH REQUESTED:          0 ISSUED:          0 USEFUL:          0 USELESS:          0
cpu0->cpu0_L1D AVERAGE MISS LATENCY: 20.66 cycles
cpu0->cpu0_ITLB TOTAL        ACCESS:   10865788 HIT:   10865788 MISS:          0 MSHR_MERGE:          0
cpu0->cpu0_ITLB LOAD         ACCESS:   10865788 HIT:   10865788 MISS:          0 MSHR_MERGE:          0
cpu0->cpu0_ITLB RFO          ACCESS:          0 HIT:          0 MISS:          0 MSHR_MERGE:          0
cpu0->cpu0_ITLB PREFETCH     ACCESS:          0 HIT:          0 MISS:          0 MSHR_MERGE:          0
cpu0->cpu0_ITLB WRITE        ACCESS:          0 HIT:          0 MISS:          0 MSHR_MERGE:          0
cpu0->cpu0_ITLB TRANSLATION  ACCESS:          0 HIT:          0 MISS:          0 MSHR_MERGE:          0
cpu0->cpu0_ITLB PREFETCH REQUESTED:          0 ISSUED:          0 USEFUL:          0 USELESS:          0
cpu0->cpu0_ITLB AVERAGE MISS LATENCY: - cycles
cpu0->cpu0_DTLB TOTAL        ACCESS:   16332160 HIT:   16319287 MISS:      12873 MSHR_MERGE:       5448
cpu0->cpu0_DTLB LOAD         ACCESS:   16332160 HIT:   16319287 MISS:      12873 MSHR_MERGE:       5448
cpu0->cpu0_DTLB RFO          ACCESS:          0 HIT:          0 MISS:          0 MSHR_MERGE:          0
cpu0->cpu0_DTLB PREFETCH     ACCESS:          0 HIT:          0 MISS:          0 MSHR_MERGE:          0
cpu0->cpu0_DTLB WRITE        ACCESS:          0 HIT:          0 MISS:          0 MSHR_MERGE:          0
cpu0->cpu0_DTLB TRANSLATION  ACCESS:          0 HIT:          0 MISS:          0 MSHR_MERGE:          0
cpu0->cpu0_DTLB PREFETCH REQUESTED:          0 ISSUED:          0 USEFUL:          0 USELESS:          0
cpu0->cpu0_DTLB AVERAGE MISS LATENCY: 667.3 cycles
cpu0->LLC TOTAL        ACCESS:    1258896 HIT:     177679 MISS:    1081217 MSHR_MERGE:      42734
cpu0->LLC LOAD         ACCESS:      17992 HIT:       7336 MISS:      10656 MSHR_MERGE:        109
cpu0->LLC RFO          ACCESS:      24362 HIT:          0 MISS:      24362 MSHR_MERGE:          0
cpu0->LLC PREFETCH     ACCESS:    1181556 HIT:     170047 MISS:    1011509 MSHR_MERGE:      42625
cpu0->LLC WRITE        ACCESS:      24527 HIT:        296 MISS:      24231 MSHR_MERGE:          0
cpu0->LLC TRANSLATION  ACCESS:      10459 HIT:          0 MISS:      10459 MSHR_MERGE:          0
cpu0->LLC PREFETCH REQUESTED:          0 ISSUED:          0 USEFUL:          0 USELESS:          0
cpu0->LLC AVERAGE MISS LATENCY: 112 cycles

DRAM Statistics

Channel 0 RQ ROW_BUFFER_HIT:      34548
  ROW_BUFFER_MISS:     979703
  AVG DBUS CONGESTED CYCLE: 4.101
Channel 0 WQ ROW_BUFFER_HIT:       1603
  ROW_BUFFER_MISS:      23191
  FULL:          0
Channel 0 REFRESHES ISSUED:       3278
