[VMEM] WARNING: physical memory size is smaller than virtual memory size.
WARNING: option --warmup_instructions is deprecated. Use --warmup-instructions instead.
WARNING: option --simulation_instructions is deprecated. Use --simulation-instructions instead.

*** ChampSim Multicore Out-of-Order Simulator ***
Warmup Instructions: 20000000
Simulation Instructions: 50000000
Number of CPUs: 1
Page size: 8192

Off-chip DRAM Size: 16 GiB Channels: 1 Width: 64-bit Data Rate: 3205 MT/s
Heartbeat CPU 0 instructions: 10000000 cycles: 8244725 heartbeat IPC: 1.213 cumulative IPC: 1.213 (Simulation time: 00 hr 01 min 12 sec)
Heartbeat CPU 0 instructions: 20000000 cycles: 15275939 heartbeat IPC: 1.422 cumulative IPC: 1.309 (Simulation time: 00 hr 02 min 17 sec)
Warmup finished CPU 0 instructions: 20000000 cycles: 15275939 cumulative IPC: 1.309 (Simulation time: 00 hr 02 min 17 sec)
Warmup complete CPU 0 instructions: 20000000 cycles: 15275939 cumulative IPC: 1.309 (Simulation time: 00 hr 02 min 17 sec)
Heartbeat CPU 0 instructions: 30000002 cycles: 44850964 heartbeat IPC: 0.3381 cumulative IPC: 0.3381 (Simulation time: 00 hr 04 min 52 sec)
Heartbeat CPU 0 instructions: 40000004 cycles: 74538348 heartbeat IPC: 0.3368 cumulative IPC: 0.3375 (Simulation time: 00 hr 07 min 30 sec)
Heartbeat CPU 0 instructions: 50000004 cycles: 104543473 heartbeat IPC: 0.3333 cumulative IPC: 0.3361 (Simulation time: 00 hr 10 min 11 sec)
Heartbeat CPU 0 instructions: 60000007 cycles: 133340536 heartbeat IPC: 0.3473 cumulative IPC: 0.3388 (Simulation time: 00 hr 12 min 46 sec)
Simulation finished CPU 0 instructions: 50000001 cycles: 146096000 cumulative IPC: 0.3422 (Simulation time: 00 hr 15 min 20 sec)
Simulation complete CPU 0 instructions: 50000001 cycles: 146096000 cumulative IPC: 0.3422 (Simulation time: 00 hr 15 min 20 sec)

ChampSim completed all CPUs

=== Simulation ===
CPU 0 runs traces/620.omnetpp_s-874B.champsimtrace.xz

Region of Interest Statistics

CPU 0 cumulative IPC: 0.3422 instructions: 50000001 cycles: 146096000
CPU 0 Branch Prediction Accuracy: 96.16% MPKI: 7.99 Average ROB Occupancy at Mispredict: 58.69
Branch type MPKI
BRANCH_DIRECT_JUMP: 0.9384
BRANCH_INDIRECT: 0.1208
BRANCH_CONDITIONAL: 5.805
BRANCH_DIRECT_CALL: 0.00236
BRANCH_INDIRECT_CALL: 0.7298
BRANCH_RETURN: 0.3936

cpu0->cpu0_STLB TOTAL        ACCESS:     827928 HIT:     690834 MISS:     137094 MSHR_MERGE:          0
cpu0->cpu0_STLB LOAD         ACCESS:     827928 HIT:     690834 MISS:     137094 MSHR_MERGE:          0
cpu0->cpu0_STLB RFO          ACCESS:          0 HIT:          0 MISS:          0 MSHR_MERGE:          0
cpu0->cpu0_STLB PREFETCH     ACCESS:          0 HIT:          0 MISS:          0 MSHR_MERGE:          0
cpu0->cpu0_STLB WRITE        ACCESS:          0 HIT:          0 MISS:          0 MSHR_MERGE:          0
cpu0->cpu0_STLB TRANSLATION  ACCESS:          0 HIT:          0 MISS:          0 MSHR_MERGE:          0
cpu0->cpu0_STLB PREFETCH REQUESTED:          0 ISSUED:          0 USEFUL:          0 USELESS:          0
cpu0->cpu0_STLB AVERAGE MISS LATENCY: 366.8 cycles
cpu0->cpu0_L2C TOTAL        ACCESS:    3531036 HIT:    1547885 MISS:    1983151 MSHR_MERGE:     220248
cpu0->cpu0_L2C LOAD         ACCESS:     933764 HIT:     378296 MISS:     555468 MSHR_MERGE:      26647
cpu0->cpu0_L2C RFO          ACCESS:     139223 HIT:      68789 MISS:      70434 MSHR_MERGE:       2849
cpu0->cpu0_L2C PREFETCH     ACCESS:    1655283 HIT:     579211 MISS:    1076072 MSHR_MERGE:     190752
cpu0->cpu0_L2C WRITE        ACCESS:     509428 HIT:     505585 MISS:       3843 MSHR_MERGE:          0
cpu0->cpu0_L2C TRANSLATION  ACCESS:     293338 HIT:      16004 MISS:     277334 MSHR_MERGE:          0
cpu0->cpu0_L2C PREFETCH REQUESTED:    1660247 ISSUED:    1655283 USEFUL:     218234 USELESS:     664425
cpu0->cpu0_L2C AVERAGE MISS LATENCY: 149.3 cycles
cpu0->cpu0_L1I TOTAL        ACCESS:    7877156 HIT:    7851687 MISS:      25469 MSHR_MERGE:       7004
cpu0->cpu0_L1I LOAD         ACCESS:    7877156 HIT:    7851687 MISS:      25469 MSHR_MERGE:       7004
cpu0->cpu0_L1I RFO          ACCESS:          0 HIT:          0 MISS:          0 MSHR_MERGE:          0
cpu0->cpu0_L1I PREFETCH     ACCESS:          0 HIT:          0 MISS:          0 MSHR_MERGE:          0
cpu0->cpu0_L1I WRITE        ACCESS:          0 HIT:          0 MISS:          0 MSHR_MERGE:          0
cpu0->cpu0_L1I TRANSLATION  ACCESS:          0 HIT:          0 MISS:          0 MSHR_MERGE:          0
cpu0->cpu0_L1I PREFETCH REQUESTED:          0 ISSUED:          0 USEFUL:          0 USELESS:          0
cpu0->cpu0_L1I AVERAGE MISS LATENCY: 35.43 cycles
cpu0->cpu0_L1D TOTAL        ACCESS:   18753382 HIT:   17035904 MISS:    1717478 MSHR_MERGE:     369609
cpu0->cpu0_L1D LOAD         ACCESS:    9417958 HIT:    8320628 MISS:    1097330 MSHR_MERGE:     182029
cpu0->cpu0_L1D RFO          ACCESS:          0 HIT:          0 MISS:          0 MSHR_MERGE:          0
cpu0->cpu0_L1D PREFETCH     ACCESS:          0 HIT:          0 MISS:          0 MSHR_MERGE:          0
cpu0->cpu0_L1D WRITE        ACCESS:    9034177 HIT:    8707723 MISS:     326454 MSHR_MERGE:     187224
cpu0->cpu0_L1D TRANSLATION  ACCESS:     301247 HIT:       7553 MISS:     293694 MSHR_MERGE:        356
cpu0->cpu0_L1D PREFETCH REQUESTED:          0 ISSUED:          0 USEFUL:          0 USELESS:          0
cpu0->cpu0_L1D AVERAGE MISS LATENCY: 108.7 cycles
cpu0->cpu0_ITLB TOTAL        ACCESS:    7214430 HIT:    7214225 MISS:        205 MSHR_MERGE:        101
cpu0->cpu0_ITLB LOAD         ACCESS:    7214430 HIT:    7214225 MISS:        205 MSHR_MERGE:        101
cpu0->cpu0_ITLB RFO          ACCESS:          0 HIT:          0 MISS:          0 MSHR_MERGE:          0
cpu0->cpu0_ITLB PREFETCH     ACCESS:          0 HIT:          0 MISS:          0 MSHR_MERGE:          0
cpu0->cpu0_ITLB WRITE        ACCESS:          0 HIT:          0 MISS:          0 MSHR_MERGE:          0
cpu0->cpu0_ITLB TRANSLATION  ACCESS:          0 HIT:          0 MISS:          0 MSHR_MERGE:          0
cpu0->cpu0_ITLB PREFETCH REQUESTED:          0 ISSUED:          0 USEFUL:          0 USELESS:          0
cpu0->cpu0_ITLB AVERAGE MISS LATENCY: 193 cycles
cpu0->cpu0_DTLB TOTAL        ACCESS:   17181251 HIT:   16235686 MISS:     945565 MSHR_MERGE:     117740
cpu0->cpu0_DTLB LOAD         ACCESS:   17181251 HIT:   16235686 MISS:     945565 MSHR_MERGE:     117740
cpu0->cpu0_DTLB RFO          ACCESS:          0 HIT:          0 MISS:          0 MSHR_MERGE:          0
cpu0->cpu0_DTLB PREFETCH     ACCESS:          0 HIT:          0 MISS:          0 MSHR_MERGE:          0
cpu0->cpu0_DTLB WRITE        ACCESS:          0 HIT:          0 MISS:          0 MSHR_MERGE:          0
cpu0->cpu0_DTLB TRANSLATION  ACCESS:          0 HIT:          0 MISS:          0 MSHR_MERGE:          0
cpu0->cpu0_DTLB PREFETCH REQUESTED:          0 ISSUED:          0 USEFUL:          0 USELESS:          0
cpu0->cpu0_DTLB AVERAGE MISS LATENCY: 64.88 cycles
cpu0->LLC TOTAL        ACCESS:    2164006 HIT:     320606 MISS:    1843400 MSHR_MERGE:        565
cpu0->LLC LOAD         ACCESS:     528821 HIT:      88333 MISS:     440488 MSHR_MERGE:          7
cpu0->LLC RFO          ACCESS:      67585 HIT:       6625 MISS:      60960 MSHR_MERGE:          2
cpu0->LLC PREFETCH     ACCESS:     885320 HIT:     112724 MISS:     772596 MSHR_MERGE:        556
cpu0->LLC WRITE        ACCESS:     404946 HIT:      80507 MISS:     324439 MSHR_MERGE:          0
cpu0->LLC TRANSLATION  ACCESS:     277334 HIT:      32417 MISS:     244917 MSHR_MERGE:          0
cpu0->LLC PREFETCH REQUESTED:          0 ISSUED:          0 USEFUL:          0 USELESS:          0
cpu0->LLC AVERAGE MISS LATENCY: 112.3 cycles

DRAM Statistics

Channel 0 RQ ROW_BUFFER_HIT:      26985
  ROW_BUFFER_MISS:    1491192
  AVG DBUS CONGESTED CYCLE: 18.9
Channel 0 WQ ROW_BUFFER_HIT:      87910
  ROW_BUFFER_MISS:     235896
  FULL:          0
Channel 0 REFRESHES ISSUED:      12175
