[VMEM] WARNING: physical memory size is smaller than virtual memory size.
WARNING: option --warmup_instructions is deprecated. Use --warmup-instructions instead.
WARNING: option --simulation_instructions is deprecated. Use --simulation-instructions instead.

*** ChampSim Multicore Out-of-Order Simulator ***
Warmup Instructions: 20000000
Simulation Instructions: 50000000
Number of CPUs: 1
Page size: 8192

Off-chip DRAM Size: 16 GiB Channels: 1 Width: 64-bit Data Rate: 3205 MT/s
Heartbeat CPU 0 instructions: 10000001 cycles: 4633269 heartbeat IPC: 2.158 cumulative IPC: 2.158 (Simulation time: 00 hr 00 min 52 sec)
Heartbeat CPU 0 instructions: 20000002 cycles: 9212862 heartbeat IPC: 2.184 cumulative IPC: 2.171 (Simulation time: 00 hr 01 min 44 sec)
Warmup finished CPU 0 instructions: 20000002 cycles: 9212862 cumulative IPC: 2.171 (Simulation time: 00 hr 01 min 44 sec)
Warmup complete CPU 0 instructions: 20000002 cycles: 9212862 cumulative IPC: 2.171 (Simulation time: 00 hr 01 min 44 sec)
Heartbeat CPU 0 instructions: 30000005 cycles: 48902235 heartbeat IPC: 0.252 cumulative IPC: 0.252 (Simulation time: 00 hr 04 min 29 sec)
Heartbeat CPU 0 instructions: 40000005 cycles: 88803950 heartbeat IPC: 0.2506 cumulative IPC: 0.2513 (Simulation time: 00 hr 07 min 20 sec)
Heartbeat CPU 0 instructions: 50000007 cycles: 129410689 heartbeat IPC: 0.2463 cumulative IPC: 0.2496 (Simulation time: 00 hr 10 min 15 sec)
Heartbeat CPU 0 instructions: 60000007 cycles: 169784800 heartbeat IPC: 0.2477 cumulative IPC: 0.2491 (Simulation time: 00 hr 13 min 07 sec)
Simulation finished CPU 0 instructions: 50000001 cycles: 201704584 cumulative IPC: 0.2479 (Simulation time: 00 hr 16 min 01 sec)
Simulation complete CPU 0 instructions: 50000001 cycles: 201704584 cumulative IPC: 0.2479 (Simulation time: 00 hr 16 min 01 sec)

ChampSim completed all CPUs

=== Simulation ===
CPU 0 runs traces/605.mcf_s-1152B.champsimtrace.xz

Region of Interest Statistics

CPU 0 cumulative IPC: 0.2479 instructions: 50000001 cycles: 201704584
CPU 0 Branch Prediction Accuracy: 90.19% MPKI: 24.48 Average ROB Occupancy at Mispredict: 21.41
Branch type MPKI
BRANCH_DIRECT_JUMP: 0.2057
BRANCH_INDIRECT: 0
BRANCH_CONDITIONAL: 24.27
BRANCH_DIRECT_CALL: 0
BRANCH_INDIRECT_CALL: 0.0036
BRANCH_RETURN: 2e-05

cpu0->cpu0_STLB TOTAL        ACCESS:    1006138 HIT:    1000381 MISS:       5757 MSHR_MERGE:          0
cpu0->cpu0_STLB LOAD         ACCESS:    1006138 HIT:    1000381 MISS:       5757 MSHR_MERGE:          0
cpu0->cpu0_STLB RFO          ACCESS:          0 HIT:          0 MISS:          0 MSHR_MERGE:          0
cpu0->cpu0_STLB PREFETCH     ACCESS:          0 HIT:          0 MISS:          0 MSHR_MERGE:          0
cpu0->cpu0_STLB WRITE        ACCESS:          0 HIT:          0 MISS:          0 MSHR_MERGE:          0
cpu0->cpu0_STLB TRANSLATION  ACCESS:          0 HIT:          0 MISS:          0 MSHR_MERGE:          0
cpu0->cpu0_STLB PREFETCH REQUESTED:          0 ISSUED:          0 USEFUL:          0 USELESS:          0
cpu0->cpu0_STLB AVERAGE MISS LATENCY: 635.2 cycles
cpu0->cpu0_L2C TOTAL        ACCESS:    8953520 HIT:    3101491 MISS:    5852029 MSHR_MERGE:     185862
cpu0->cpu0_L2C LOAD         ACCESS:    2552734 HIT:    1081653 MISS:    1471081 MSHR_MERGE:      18508
cpu0->cpu0_L2C RFO          ACCESS:     187384 HIT:      25953 MISS:     161431 MSHR_MERGE:          2
cpu0->cpu0_L2C PREFETCH     ACCESS:    5939302 HIT:    1728153 MISS:    4211149 MSHR_MERGE:     167352
cpu0->cpu0_L2C WRITE        ACCESS:     265748 HIT:     264279 MISS:       1469 MSHR_MERGE:          0
cpu0->cpu0_L2C TRANSLATION  ACCESS:       8352 HIT:       1453 MISS:       6899 MSHR_MERGE:          0
cpu0->cpu0_L2C PREFETCH REQUESTED:    6409163 ISSUED:    5939302 USEFUL:     785324 USELESS:    3046797
cpu0->cpu0_L2C AVERAGE MISS LATENCY: 102.6 cycles
cpu0->cpu0_L1I TOTAL        ACCESS:     437716 HIT:     437716 MISS:          0 MSHR_MERGE:          0
cpu0->cpu0_L1I LOAD         ACCESS:     437716 HIT:     437716 MISS:          0 MSHR_MERGE:          0
cpu0->cpu0_L1I RFO          ACCESS:          0 HIT:          0 MISS:          0 MSHR_MERGE:          0
cpu0->cpu0_L1I PREFETCH     ACCESS:          0 HIT:          0 MISS:          0 MSHR_MERGE:          0
cpu0->cpu0_L1I WRITE        ACCESS:          0 HIT:          0 MISS:          0 MSHR_MERGE:          0
cpu0->cpu0_L1I TRANSLATION  ACCESS:          0 HIT:          0 MISS:          0 MSHR_MERGE:          0
cpu0->cpu0_L1I PREFETCH REQUESTED:          0 ISSUED:          0 USEFUL:          0 USELESS:          0
cpu0->cpu0_L1I AVERAGE MISS LATENCY: - cycles
cpu0->cpu0_L1D TOTAL        ACCESS:   17986810 HIT:   14390513 MISS:    3596297 MSHR_MERGE:     847823
cpu0->cpu0_L1D LOAD         ACCESS:   12810861 HIT:    9729969 MISS:    3080892 MSHR_MERGE:     528157
cpu0->cpu0_L1D RFO          ACCESS:          0 HIT:          0 MISS:          0 MSHR_MERGE:          0
cpu0->cpu0_L1D PREFETCH     ACCESS:          0 HIT:          0 MISS:          0 MSHR_MERGE:          0
cpu0->cpu0_L1D WRITE        ACCESS:    5164339 HIT:    4657286 MISS:     507053 MSHR_MERGE:     319666
cpu0->cpu0_L1D TRANSLATION  ACCESS:      11610 HIT:       3258 MISS:       8352 MSHR_MERGE:          0
cpu0->cpu0_L1D PREFETCH REQUESTED:          0 ISSUED:          0 USEFUL:          0 USELESS:          0
cpu0->cpu0_L1D AVERAGE MISS LATENCY: 70.33 cycles
cpu0->cpu0_ITLB TOTAL        ACCESS:     405888 HIT:     405888 MISS:          0 MSHR_MERGE:          0
cpu0->cpu0_ITLB LOAD         ACCESS:     405888 HIT:     405888 MISS:          0 MSHR_MERGE:          0
cpu0->cpu0_ITLB RFO          ACCESS:          0 HIT:          0 MISS:          0 MSHR_MERGE:          0
cpu0->cpu0_ITLB PREFETCH     ACCESS:          0 HIT:          0 MISS:          0 MSHR_MERGE:          0
cpu0->cpu0_ITLB WRITE        ACCESS:          0 HIT:          0 MISS:          0 MSHR_MERGE:          0
cpu0->cpu0_ITLB TRANSLATION  ACCESS:          0 HIT:          0 MISS:          0 MSHR_MERGE:          0
cpu0->cpu0_ITLB PREFETCH REQUESTED:          0 ISSUED:          0 USEFUL:          0 USELESS:          0
cpu0->cpu0_ITLB AVERAGE MISS LATENCY: - cycles
cpu0->cpu0_DTLB TOTAL        ACCESS:   16846549 HIT:   15656161 MISS:    1190388 MSHR_MERGE:     184250
cpu0->cpu0_DTLB LOAD         ACCESS:   16846549 HIT:   15656161 MISS:    1190388 MSHR_MERGE:     184250
cpu0->cpu0_DTLB RFO          ACCESS:          0 HIT:          0 MISS:          0 MSHR_MERGE:          0
cpu0->cpu0_DTLB PREFETCH     ACCESS:          0 HIT:          0 MISS:          0 MSHR_MERGE:          0
cpu0->cpu0_DTLB WRITE        ACCESS:          0 HIT:          0 MISS:          0 MSHR_MERGE:          0
cpu0->cpu0_DTLB TRANSLATION  ACCESS:          0 HIT:          0 MISS:          0 MSHR_MERGE:          0
cpu0->cpu0_DTLB PREFETCH REQUESTED:          0 ISSUED:          0 USEFUL:          0 USELESS:          0
cpu0->cpu0_DTLB AVERAGE MISS LATENCY: 7.64 cycles
cpu0->LLC TOTAL        ACCESS:    5884674 HIT:    2039853 MISS:    3844821 MSHR_MERGE:      77982
cpu0->LLC LOAD         ACCESS:    1452573 HIT:     598147 MISS:     854426 MSHR_MERGE:        443
cpu0->LLC RFO          ACCESS:     161429 HIT:     147815 MISS:      13614 MSHR_MERGE:          0
cpu0->LLC PREFETCH     ACCESS:    4043795 HIT:    1097848 MISS:    2945947 MSHR_MERGE:      77539
cpu0->LLC WRITE        ACCESS:     219978 HIT:     196040 MISS:      23938 MSHR_MERGE:          0
cpu0->LLC TRANSLATION  ACCESS:       6899 HIT:          3 MISS:       6896 MSHR_MERGE:          0
cpu0->LLC PREFETCH REQUESTED:          0 ISSUED:          0 USEFUL:          0 USELESS:          0
cpu0->LLC AVERAGE MISS LATENCY: 155.2 cycles

DRAM Statistics

Channel 0 RQ ROW_BUFFER_HIT:      74812
  ROW_BUFFER_MISS:    3667899
  AVG DBUS CONGESTED CYCLE: 10.74
Channel 0 WQ ROW_BUFFER_HIT:       6888
  ROW_BUFFER_MISS:      18606
  FULL:          0
Channel 0 REFRESHES ISSUED:      16809
