[VMEM] WARNING: physical memory size is smaller than virtual memory size.
WARNING: option --warmup_instructions is deprecated. Use --warmup-instructions instead.
WARNING: option --simulation_instructions is deprecated. Use --simulation-instructions instead.

*** ChampSim Multicore Out-of-Order Simulator ***
Warmup Instructions: 20000000
Simulation Instructions: 50000000
Number of CPUs: 1
Page size: 8192

Off-chip DRAM Size: 16 GiB Channels: 1 Width: 64-bit Data Rate: 3205 MT/s
Heartbeat CPU 0 instructions: 10000000 cycles: 6985655 heartbeat IPC: 1.432 cumulative IPC: 1.432 (Simulation time: 00 hr 01 min 13 sec)
Heartbeat CPU 0 instructions: 20000001 cycles: 11062527 heartbeat IPC: 2.453 cumulative IPC: 1.808 (Simulation time: 00 hr 02 min 07 sec)
Warmup finished CPU 0 instructions: 20000001 cycles: 11062527 cumulative IPC: 1.808 (Simulation time: 00 hr 02 min 07 sec)
Warmup complete CPU 0 instructions: 20000001 cycles: 11062527 cumulative IPC: 1.808 (Simulation time: 00 hr 02 min 07 sec)
Heartbeat CPU 0 instructions: 30000003 cycles: 46671450 heartbeat IPC: 0.2808 cumulative IPC: 0.2808 (Simulation time: 00 hr 05 min 32 sec)
Heartbeat CPU 0 instructions: 40000005 cycles: 82017035 heartbeat IPC: 0.2829 cumulative IPC: 0.2819 (Simulation time: 00 hr 08 min 59 sec)
Heartbeat CPU 0 instructions: 50000006 cycles: 117851163 heartbeat IPC: 0.2791 cumulative IPC: 0.2809 (Simulation time: 00 hr 12 min 29 sec)
Heartbeat CPU 0 instructions: 60000007 cycles: 153177674 heartbeat IPC: 0.2831 cumulative IPC: 0.2815 (Simulation time: 00 hr 15 min 55 sec)
Simulation finished CPU 0 instructions: 50000002 cycles: 176830817 cumulative IPC: 0.2828 (Simulation time: 00 hr 19 min 20 sec)
Simulation complete CPU 0 instructions: 50000002 cycles: 176830817 cumulative IPC: 0.2828 (Simulation time: 00 hr 19 min 20 sec)

ChampSim completed all CPUs

=== Simulation ===
CPU 0 runs traces/473.astar-359B.champsimtrace.xz

Region of Interest Statistics

CPU 0 cumulative IPC: 0.2828 instructions: 50000002 cycles: 176830817
CPU 0 Branch Prediction Accuracy: 93.2% MPKI: 13.43 Average ROB Occupancy at Mispredict: 44.43
Branch type MPKI
BRANCH_DIRECT_JUMP: 0
BRANCH_INDIRECT: 0
BRANCH_CONDITIONAL: 13.42
BRANCH_DIRECT_CALL: 0
BRANCH_INDIRECT_CALL: 0.00054
BRANCH_RETURN: 0

cpu0->cpu0_STLB TOTAL        ACCESS:    1275627 HIT:     889360 MISS:     386267 MSHR_MERGE:          0
cpu0->cpu0_STLB LOAD         ACCESS:    1275627 HIT:     889360 MISS:     386267 MSHR_MERGE:          0
cpu0->cpu0_STLB RFO          ACCESS:          0 HIT:          0 MISS:          0 MSHR_MERGE:          0
cpu0->cpu0_STLB PREFETCH     ACCESS:          0 HIT:          0 MISS:          0 MSHR_MERGE:          0
cpu0->cpu0_STLB WRITE        ACCESS:          0 HIT:          0 MISS:          0 MSHR_MERGE:          0
cpu0->cpu0_STLB TRANSLATION  ACCESS:          0 HIT:          0 MISS:          0 MSHR_MERGE:          0
cpu0->cpu0_STLB PREFETCH REQUESTED:          0 ISSUED:          0 USEFUL:          0 USELESS:          0
cpu0->cpu0_STLB AVERAGE MISS LATENCY: 380.3 cycles
cpu0->cpu0_L2C TOTAL        ACCESS:    5079406 HIT:    2300639 MISS:    2778767 MSHR_MERGE:      90182
cpu0->cpu0_L2C LOAD         ACCESS:    1775427 HIT:     803150 MISS:     972277 MSHR_MERGE:      39741
cpu0->cpu0_L2C RFO          ACCESS:     767639 HIT:      47898 MISS:     719741 MSHR_MERGE:          0
cpu0->cpu0_L2C PREFETCH     ACCESS:     717797 HIT:     273767 MISS:     444030 MSHR_MERGE:      50441
cpu0->cpu0_L2C WRITE        ACCESS:    1168867 HIT:    1168821 MISS:         46 MSHR_MERGE:          0
cpu0->cpu0_L2C TRANSLATION  ACCESS:     649676 HIT:       7003 MISS:     642673 MSHR_MERGE:          0
cpu0->cpu0_L2C PREFETCH REQUESTED:     717797 ISSUED:     717797 USEFUL:     124346 USELESS:     269924
cpu0->cpu0_L2C AVERAGE MISS LATENCY: 163 cycles
cpu0->cpu0_L1I TOTAL        ACCESS:     839992 HIT:     839985 MISS:          7 MSHR_MERGE:          0
cpu0->cpu0_L1I LOAD         ACCESS:     839992 HIT:     839985 MISS:          7 MSHR_MERGE:          0
cpu0->cpu0_L1I RFO          ACCESS:          0 HIT:          0 MISS:          0 MSHR_MERGE:          0
cpu0->cpu0_L1I PREFETCH     ACCESS:          0 HIT:          0 MISS:          0 MSHR_MERGE:          0
cpu0->cpu0_L1I WRITE        ACCESS:          0 HIT:          0 MISS:          0 MSHR_MERGE:          0
cpu0->cpu0_L1I TRANSLATION  ACCESS:          0 HIT:          0 MISS:          0 MSHR_MERGE:          0
cpu0->cpu0_L1I PREFETCH REQUESTED:          0 ISSUED:          0 USEFUL:          0 USELESS:          0
cpu0->cpu0_L1I AVERAGE MISS LATENCY: 112.9 cycles
cpu0->cpu0_L1D TOTAL        ACCESS:   19846101 HIT:   15938277 MISS:    3907824 MSHR_MERGE:     715086
cpu0->cpu0_L1D LOAD         ACCESS:   12755319 HIT:   10357898 MISS:    2397421 MSHR_MERGE:     621999
cpu0->cpu0_L1D RFO          ACCESS:          0 HIT:          0 MISS:          0 MSHR_MERGE:          0
cpu0->cpu0_L1D PREFETCH     ACCESS:          0 HIT:          0 MISS:          0 MSHR_MERGE:          0
cpu0->cpu0_L1D WRITE        ACCESS:    6314497 HIT:    5546799 MISS:     767698 MSHR_MERGE:         58
cpu0->cpu0_L1D TRANSLATION  ACCESS:     776285 HIT:      33580 MISS:     742705 MSHR_MERGE:      93029
cpu0->cpu0_L1D PREFETCH REQUESTED:          0 ISSUED:          0 USEFUL:          0 USELESS:          0
cpu0->cpu0_L1D AVERAGE MISS LATENCY: 129.8 cycles
cpu0->cpu0_ITLB TOTAL        ACCESS:     837486 HIT:     837486 MISS:          0 MSHR_MERGE:          0
cpu0->cpu0_ITLB LOAD         ACCESS:     837486 HIT:     837486 MISS:          0 MSHR_MERGE:          0
cpu0->cpu0_ITLB RFO          ACCESS:          0 HIT:          0 MISS:          0 MSHR_MERGE:          0
cpu0->cpu0_ITLB PREFETCH     ACCESS:          0 HIT:          0 MISS:          0 MSHR_MERGE:          0
cpu0->cpu0_ITLB WRITE        ACCESS:          0 HIT:          0 MISS:          0 MSHR_MERGE:          0
cpu0->cpu0_ITLB TRANSLATION  ACCESS:          0 HIT:          0 MISS:          0 MSHR_MERGE:          0
cpu0->cpu0_ITLB PREFETCH REQUESTED:          0 ISSUED:          0 USEFUL:          0 USELESS:          0
cpu0->cpu0_ITLB AVERAGE MISS LATENCY: - cycles
cpu0->cpu0_DTLB TOTAL        ACCESS:   18142240 HIT:   16259284 MISS:    1882956 MSHR_MERGE:     607329
cpu0->cpu0_DTLB LOAD         ACCESS:   18142240 HIT:   16259284 MISS:    1882956 MSHR_MERGE:     607329
cpu0->cpu0_DTLB RFO          ACCESS:          0 HIT:          0 MISS:          0 MSHR_MERGE:          0
cpu0->cpu0_DTLB PREFETCH     ACCESS:          0 HIT:          0 MISS:          0 MSHR_MERGE:          0
cpu0->cpu0_DTLB WRITE        ACCESS:          0 HIT:          0 MISS:          0 MSHR_MERGE:          0
cpu0->cpu0_DTLB TRANSLATION  ACCESS:          0 HIT:          0 MISS:          0 MSHR_MERGE:          0
cpu0->cpu0_DTLB PREFETCH REQUESTED:          0 ISSUED:          0 USEFUL:          0 USELESS:          0
cpu0->cpu0_DTLB AVERAGE MISS LATENCY: 119.5 cycles
cpu0->LLC TOTAL        ACCESS:    3808408 HIT:     841349 MISS:    2967059 MSHR_MERGE:          0
cpu0->LLC LOAD         ACCESS:     932536 HIT:     215495 MISS:     717041 MSHR_MERGE:          0
cpu0->LLC RFO          ACCESS:     719740 HIT:     155776 MISS:     563964 MSHR_MERGE:          0
cpu0->LLC PREFETCH     ACCESS:     393589 HIT:      53409 MISS:     340180 MSHR_MERGE:          0
cpu0->LLC WRITE        ACCESS:    1119870 HIT:     313160 MISS:     806710 MSHR_MERGE:          0
cpu0->LLC TRANSLATION  ACCESS:     642673 HIT:     103509 MISS:     539164 MSHR_MERGE:          0
cpu0->LLC PREFETCH REQUESTED:          0 ISSUED:          0 USEFUL:          0 USELESS:          0
cpu0->LLC AVERAGE MISS LATENCY: 129.7 cycles

DRAM Statistics

Channel 0 RQ ROW_BUFFER_HIT:      40454
  ROW_BUFFER_MISS:    2119833
  AVG DBUS CONGESTED CYCLE: 7.838
Channel 0 WQ ROW_BUFFER_HIT:      73814
  ROW_BUFFER_MISS:     780768
  FULL:         72
Channel 0 REFRESHES ISSUED:      14736
