[VMEM] WARNING: physical memory size is smaller than virtual memory size.
WARNING: option --warmup_instructions is deprecated. Use --warmup-instructions instead.
WARNING: option --simulation_instructions is deprecated. Use --simulation-instructions instead.

*** ChampSim Multicore Out-of-Order Simulator ***
Warmup Instructions: 20000000
Simulation Instructions: 50000000
Number of CPUs: 1
Page size: 8192

Off-chip DRAM Size: 16 GiB Channels: 1 Width: 64-bit Data Rate: 3205 MT/s
Heartbeat CPU 0 instructions: 10000000 cycles: 4285406 heartbeat IPC: 2.334 cumulative IPC: 2.334 (Simulation time: 00 hr 00 min 45 sec)
Heartbeat CPU 0 instructions: 20000003 cycles: 8562591 heartbeat IPC: 2.338 cumulative IPC: 2.336 (Simulation time: 00 hr 01 min 31 sec)
Warmup finished CPU 0 instructions: 20000003 cycles: 8562591 cumulative IPC: 2.336 (Simulation time: 00 hr 01 min 31 sec)
Warmup complete CPU 0 instructions: 20000003 cycles: 8562591 cumulative IPC: 2.336 (Simulation time: 00 hr 01 min 31 sec)
Heartbeat CPU 0 instructions: 30000003 cycles: 21055405 heartbeat IPC: 0.8005 cumulative IPC: 0.8005 (Simulation time: 00 hr 03 min 03 sec)
Heartbeat CPU 0 instructions: 40000003 cycles: 33564081 heartbeat IPC: 0.7994 cumulative IPC: 0.8 (Simulation time: 00 hr 04 min 34 sec)
Heartbeat CPU 0 instructions: 50000007 cycles: 45989211 heartbeat IPC: 0.8048 cumulative IPC: 0.8016 (Simulation time: 00 hr 06 min 05 sec)
Heartbeat CPU 0 instructions: 60000011 cycles: 58477560 heartbeat IPC: 0.8007 cumulative IPC: 0.8014 (Simulation time: 00 hr 07 min 37 sec)
Simulation finished CPU 0 instructions: 50000000 cycles: 62367049 cumulative IPC: 0.8017 (Simulation time: 00 hr 09 min 07 sec)
Simulation complete CPU 0 instructions: 50000000 cycles: 62367049 cumulative IPC: 0.8017 (Simulation time: 00 hr 09 min 07 sec)

ChampSim completed all CPUs

=== Simulation ===
CPU 0 runs traces/603.bwaves_s-1740B.champsimtrace.xz

Region of Interest Statistics

CPU 0 cumulative IPC: 0.8017 instructions: 50000000 cycles: 62367049
CPU 0 Branch Prediction Accuracy: 99.97% MPKI: 0.00734 Average ROB Occupancy at Mispredict: 189.7
Branch type MPKI
BRANCH_DIRECT_JUMP: 0
BRANCH_INDIRECT: 0
BRANCH_CONDITIONAL: 0.00734
BRANCH_DIRECT_CALL: 0
BRANCH_INDIRECT_CALL: 0
BRANCH_RETURN: 0

cpu0->cpu0_STLB TOTAL        ACCESS:       7425 HIT:        365 MISS:       7060 MSHR_MERGE:          0
cpu0->cpu0_STLB LOAD         ACCESS:       7425 HIT:        365 MISS:       7060 MSHR_MERGE:          0
cpu0->cpu0_STLB RFO          ACCESS:          0 HIT:          0 MISS:          0 MSHR_MERGE:          0
cpu0->cpu0_STLB PREFETCH     ACCESS:          0 HIT:          0 MISS:          0 MSHR_MERGE:          0
cpu0->cpu0_STLB WRITE        ACCESS:          0 HIT:          0 MISS:          0 MSHR_MERGE:          0
cpu0->cpu0_STLB TRANSLATION  ACCESS:          0 HIT:          0 MISS:          0 MSHR_MERGE:          0
cpu0->cpu0_STLB PREFETCH REQUESTED:          0 ISSUED:          0 USEFUL:          0 USELESS:          0
cpu0->cpu0_STLB AVERAGE MISS LATENCY: 693.6 cycles
cpu0->cpu0_L2C TOTAL        ACCESS:    1103195 HIT:     134167 MISS:     969028 MSHR_MERGE:          0
cpu0->cpu0_L2C LOAD         ACCESS:    1018837 HIT:      84821 MISS:     934016 MSHR_MERGE:          0
cpu0->cpu0_L2C RFO          ACCESS:      33718 HIT:       9355 MISS:      24363 MSHR_MERGE:          0
cpu0->cpu0_L2C PREFETCH     ACCESS:          0 HIT:          0 MISS:          0 MSHR_MERGE:          0
cpu0->cpu0_L2C WRITE        ACCESS:      37153 HIT:      36879 MISS:        274 MSHR_MERGE:          0
cpu0->cpu0_L2C TRANSLATION  ACCESS:      13487 HIT:       3112 MISS:      10375 MSHR_MERGE:          0
cpu0->cpu0_L2C PREFETCH REQUESTED:          0 ISSUED:          0 USEFUL:          0 USELESS:          0
cpu0->cpu0_L2C AVERAGE MISS LATENCY: 195.2 cycles
cpu0->cpu0_L1I TOTAL        ACCESS:   11292001 HIT:   11292001 MISS:          0 MSHR_MERGE:          0
cpu0->cpu0_L1I LOAD         ACCESS:   11292001 HIT:   11292001 MISS:          0 MSHR_MERGE:          0
cpu0->cpu0_L1I RFO          ACCESS:          0 HIT:          0 MISS:          0 MSHR_MERGE:          0
cpu0->cpu0_L1I PREFETCH     ACCESS:          0 HIT:          0 MISS:          0 MSHR_MERGE:          0
cpu0->cpu0_L1I WRITE        ACCESS:          0 HIT:          0 MISS:          0 MSHR_MERGE:          0
cpu0->cpu0_L1I TRANSLATION  ACCESS:          0 HIT:          0 MISS:          0 MSHR_MERGE:          0
cpu0->cpu0_L1I PREFETCH REQUESTED:          0 ISSUED:          0 USEFUL:          0 USELESS:          0
cpu0->cpu0_L1I AVERAGE MISS LATENCY: - cycles
cpu0->cpu0_L1D TOTAL        ACCESS:   16892995 HIT:   15539159 MISS:    1353836 MSHR_MERGE:     287733
cpu0->cpu0_L1D LOAD         ACCESS:   14062245 HIT:   12772312 MISS:    1289933 MSHR_MERGE:     271061
cpu0->cpu0_L1D RFO          ACCESS:          0 HIT:          0 MISS:          0 MSHR_MERGE:          0
cpu0->cpu0_L1D PREFETCH     ACCESS:          0 HIT:          0 MISS:          0 MSHR_MERGE:          0
cpu0->cpu0_L1D WRITE        ACCESS:    2816699 HIT:    2766542 MISS:      50157 MSHR_MERGE:      16413
cpu0->cpu0_L1D TRANSLATION  ACCESS:      14051 HIT:        305 MISS:      13746 MSHR_MERGE:        259
cpu0->cpu0_L1D PREFETCH REQUESTED:          0 ISSUED:          0 USEFUL:          0 USELESS:          0
cpu0->cpu0_L1D AVERAGE MISS LATENCY: 186.3 cycles
cpu0->cpu0_ITLB TOTAL        ACCESS:   10248296 HIT:   10248296 MISS:          0 MSHR_MERGE:          0
cpu0->cpu0_ITLB LOAD         ACCESS:   10248296 HIT:   10248296 MISS:          0 MSHR_MERGE:          0
cpu0->cpu0_ITLB RFO          ACCESS:          0 HIT:          0 MISS:          0 MSHR_MERGE:          0
cpu0->cpu0_ITLB PREFETCH     ACCESS:          0 HIT:          0 MISS:          0 MSHR_MERGE:          0
cpu0->cpu0_ITLB WRITE        ACCESS:          0 HIT:          0 MISS:          0 MSHR_MERGE:          0
cpu0->cpu0_ITLB TRANSLATION  ACCESS:          0 HIT:          0 MISS:          0 MSHR_MERGE:          0
cpu0->cpu0_ITLB PREFETCH REQUESTED:          0 ISSUED:          0 USEFUL:          0 USELESS:          0
cpu0->cpu0_ITLB AVERAGE MISS LATENCY: - cycles
cpu0->cpu0_DTLB TOTAL        ACCESS:   16239112 HIT:   16226753 MISS:      12359 MSHR_MERGE:       4934
cpu0->cpu0_DTLB LOAD         ACCESS:   16239112 HIT:   16226753 MISS:      12359 MSHR_MERGE:       4934
cpu0->cpu0_DTLB RFO          ACCESS:          0 HIT:          0 MISS:          0 MSHR_MERGE:          0
cpu0->cpu0_DTLB PREFETCH     ACCESS:          0 HIT:          0 MISS:          0 MSHR_MERGE:          0
cpu0->cpu0_DTLB WRITE        ACCESS:          0 HIT:          0 MISS:          0 MSHR_MERGE:          0
cpu0->cpu0_DTLB TRANSLATION  ACCESS:          0 HIT:          0 MISS:          0 MSHR_MERGE:          0
cpu0->cpu0_DTLB PREFETCH REQUESTED:          0 ISSUED:          0 USEFUL:          0 USELESS:          0
cpu0->cpu0_DTLB AVERAGE MISS LATENCY: 664.5 cycles
cpu0->LLC TOTAL        ACCESS:     993444 HIT:       4182 MISS:     989262 MSHR_MERGE:          0
cpu0->LLC LOAD         ACCESS:     934016 HIT:       1766 MISS:     932250 MSHR_MERGE:          0
cpu0->LLC RFO          ACCESS:      24363 HIT:          1 MISS:      24362 MSHR_MERGE:          0
cpu0->LLC PREFETCH     ACCESS:          0 HIT:          0 MISS:          0 MSHR_MERGE:          0
cpu0->LLC WRITE        ACCESS:      24690 HIT:       2404 MISS:      22286 MSHR_MERGE:          0
cpu0->LLC TRANSLATION  ACCESS:      10375 HIT:         11 MISS:      10364 MSHR_MERGE:          0
cpu0->LLC PREFETCH REQUESTED:          0 ISSUED:          0 USEFUL:          0 USELESS:          0
cpu0->LLC AVERAGE MISS LATENCY: 174.7 cycles

DRAM Statistics

Channel 0 RQ ROW_BUFFER_HIT:        718
  ROW_BUFFER_MISS:     966258
  AVG DBUS CONGESTED CYCLE: 5.942
Channel 0 WQ ROW_BUFFER_HIT:       4427
  ROW_BUFFER_MISS:      19972
  FULL:          0
Channel 0 REFRESHES ISSUED:       5197
