[VMEM] WARNING: physical memory size is smaller than virtual memory size.
WARNING: option --warmup_instructions is deprecated. Use --warmup-instructions instead.
WARNING: option --simulation_instructions is deprecated. Use --simulation-instructions instead.

*** ChampSim Multicore Out-of-Order Simulator ***
Warmup Instructions: 20000000
Simulation Instructions: 50000000
Number of CPUs: 1
Page size: 8192

Off-chip DRAM Size: 16 GiB Channels: 1 Width: 64-bit Data Rate: 3205 MT/s
Heartbeat CPU 0 instructions: 10000002 cycles: 6839943 heartbeat IPC: 1.462 cumulative IPC: 1.462 (Simulation time: 00 hr 01 min 04 sec)
Heartbeat CPU 0 instructions: 20000005 cycles: 10791204 heartbeat IPC: 2.531 cumulative IPC: 1.853 (Simulation time: 00 hr 01 min 52 sec)
Warmup finished CPU 0 instructions: 20000005 cycles: 10791204 cumulative IPC: 1.853 (Simulation time: 00 hr 01 min 52 sec)
Warmup complete CPU 0 instructions: 20000005 cycles: 10791204 cumulative IPC: 1.853 (Simulation time: 00 hr 01 min 52 sec)
Heartbeat CPU 0 instructions: 30000005 cycles: 61454627 heartbeat IPC: 0.1974 cumulative IPC: 0.1974 (Simulation time: 00 hr 06 min 03 sec)
Heartbeat CPU 0 instructions: 40000009 cycles: 112714856 heartbeat IPC: 0.1951 cumulative IPC: 0.1962 (Simulation time: 00 hr 10 min 19 sec)
Heartbeat CPU 0 instructions: 50000009 cycles: 164069262 heartbeat IPC: 0.1947 cumulative IPC: 0.1957 (Simulation time: 00 hr 14 min 43 sec)
Heartbeat CPU 0 instructions: 60000011 cycles: 214918128 heartbeat IPC: 0.1967 cumulative IPC: 0.196 (Simulation time: 00 hr 19 min 01 sec)
Simulation finished CPU 0 instructions: 50000004 cycles: 253701945 cumulative IPC: 0.1971 (Simulation time: 00 hr 23 min 16 sec)
Simulation complete CPU 0 instructions: 50000004 cycles: 253701945 cumulative IPC: 0.1971 (Simulation time: 00 hr 23 min 16 sec)

ChampSim completed all CPUs

=== Simulation ===
CPU 0 runs traces/473.astar-359B.champsimtrace.xz

Region of Interest Statistics

CPU 0 cumulative IPC: 0.1971 instructions: 50000004 cycles: 253701945
CPU 0 Branch Prediction Accuracy: 93.2% MPKI: 13.43 Average ROB Occupancy at Mispredict: 45.86
Branch type MPKI
BRANCH_DIRECT_JUMP: 0
BRANCH_INDIRECT: 0
BRANCH_CONDITIONAL: 13.42
BRANCH_DIRECT_CALL: 0
BRANCH_INDIRECT_CALL: 0.00054
BRANCH_RETURN: 0

cpu0->cpu0_STLB TOTAL        ACCESS:    1275690 HIT:     889429 MISS:     386261 MSHR_MERGE:          0
cpu0->cpu0_STLB LOAD         ACCESS:    1275690 HIT:     889429 MISS:     386261 MSHR_MERGE:          0
cpu0->cpu0_STLB RFO          ACCESS:          0 HIT:          0 MISS:          0 MSHR_MERGE:          0
cpu0->cpu0_STLB PREFETCH     ACCESS:          0 HIT:          0 MISS:          0 MSHR_MERGE:          0
cpu0->cpu0_STLB WRITE        ACCESS:          0 HIT:          0 MISS:          0 MSHR_MERGE:          0
cpu0->cpu0_STLB TRANSLATION  ACCESS:          0 HIT:          0 MISS:          0 MSHR_MERGE:          0
cpu0->cpu0_STLB PREFETCH REQUESTED:          0 ISSUED:          0 USEFUL:          0 USELESS:          0
cpu0->cpu0_STLB AVERAGE MISS LATENCY: 515.3 cycles
cpu0->cpu0_L2C TOTAL        ACCESS:    4361225 HIT:    1957273 MISS:    2403952 MSHR_MERGE:          0
cpu0->cpu0_L2C LOAD         ACCESS:    1775425 HIT:     732616 MISS:    1042809 MSHR_MERGE:          0
cpu0->cpu0_L2C RFO          ACCESS:     767639 HIT:      47674 MISS:     719965 MSHR_MERGE:          0
cpu0->cpu0_L2C PREFETCH     ACCESS:          0 HIT:          0 MISS:          0 MSHR_MERGE:          0
cpu0->cpu0_L2C WRITE        ACCESS:    1168865 HIT:    1168826 MISS:         39 MSHR_MERGE:          0
cpu0->cpu0_L2C TRANSLATION  ACCESS:     649296 HIT:       8157 MISS:     641139 MSHR_MERGE:          0
cpu0->cpu0_L2C PREFETCH REQUESTED:          0 ISSUED:          0 USEFUL:          0 USELESS:          0
cpu0->cpu0_L2C AVERAGE MISS LATENCY: 246.9 cycles
cpu0->cpu0_L1I TOTAL        ACCESS:     800666 HIT:     800659 MISS:          7 MSHR_MERGE:          0
cpu0->cpu0_L1I LOAD         ACCESS:     800666 HIT:     800659 MISS:          7 MSHR_MERGE:          0
cpu0->cpu0_L1I RFO          ACCESS:          0 HIT:          0 MISS:          0 MSHR_MERGE:          0
cpu0->cpu0_L1I PREFETCH     ACCESS:          0 HIT:          0 MISS:          0 MSHR_MERGE:          0
cpu0->cpu0_L1I WRITE        ACCESS:          0 HIT:          0 MISS:          0 MSHR_MERGE:          0
cpu0->cpu0_L1I TRANSLATION  ACCESS:          0 HIT:          0 MISS:          0 MSHR_MERGE:          0
cpu0->cpu0_L1I PREFETCH REQUESTED:          0 ISSUED:          0 USEFUL:          0 USELESS:          0
cpu0->cpu0_L1I AVERAGE MISS LATENCY: 178.3 cycles
cpu0->cpu0_L1D TOTAL        ACCESS:   19956876 HIT:   16020934 MISS:    3935942 MSHR_MERGE:     743587
cpu0->cpu0_L1D LOAD         ACCESS:   12878953 HIT:   10448088 MISS:    2430865 MSHR_MERGE:     655447
cpu0->cpu0_L1D RFO          ACCESS:          0 HIT:          0 MISS:          0 MSHR_MERGE:          0
cpu0->cpu0_L1D PREFETCH     ACCESS:          0 HIT:          0 MISS:          0 MSHR_MERGE:          0
cpu0->cpu0_L1D WRITE        ACCESS:    6302824 HIT:    5535102 MISS:     767722 MSHR_MERGE:         81
cpu0->cpu0_L1D TRANSLATION  ACCESS:     775099 HIT:      37744 MISS:     737355 MSHR_MERGE:      88059
cpu0->cpu0_L1D PREFETCH REQUESTED:          0 ISSUED:          0 USEFUL:          0 USELESS:          0
cpu0->cpu0_L1D AVERAGE MISS LATENCY: 194.7 cycles
cpu0->cpu0_ITLB TOTAL        ACCESS:     798031 HIT:     798031 MISS:          0 MSHR_MERGE:          0
cpu0->cpu0_ITLB LOAD         ACCESS:     798031 HIT:     798031 MISS:          0 MSHR_MERGE:          0
cpu0->cpu0_ITLB RFO          ACCESS:          0 HIT:          0 MISS:          0 MSHR_MERGE:          0
cpu0->cpu0_ITLB PREFETCH     ACCESS:          0 HIT:          0 MISS:          0 MSHR_MERGE:          0
cpu0->cpu0_ITLB WRITE        ACCESS:          0 HIT:          0 MISS:          0 MSHR_MERGE:          0
cpu0->cpu0_ITLB TRANSLATION  ACCESS:          0 HIT:          0 MISS:          0 MSHR_MERGE:          0
cpu0->cpu0_ITLB PREFETCH REQUESTED:          0 ISSUED:          0 USEFUL:          0 USELESS:          0
cpu0->cpu0_ITLB AVERAGE MISS LATENCY: - cycles
cpu0->cpu0_DTLB TOTAL        ACCESS:   18578122 HIT:   16745360 MISS:    1832762 MSHR_MERGE:     557072
cpu0->cpu0_DTLB LOAD         ACCESS:   18578122 HIT:   16745360 MISS:    1832762 MSHR_MERGE:     557072
cpu0->cpu0_DTLB RFO          ACCESS:          0 HIT:          0 MISS:          0 MSHR_MERGE:          0
cpu0->cpu0_DTLB PREFETCH     ACCESS:          0 HIT:          0 MISS:          0 MSHR_MERGE:          0
cpu0->cpu0_DTLB WRITE        ACCESS:          0 HIT:          0 MISS:          0 MSHR_MERGE:          0
cpu0->cpu0_DTLB TRANSLATION  ACCESS:          0 HIT:          0 MISS:          0 MSHR_MERGE:          0
cpu0->cpu0_DTLB PREFETCH REQUESTED:          0 ISSUED:          0 USEFUL:          0 USELESS:          0
cpu0->cpu0_DTLB AVERAGE MISS LATENCY: 160.3 cycles
cpu0->LLC TOTAL        ACCESS:    3523311 HIT:     757635 MISS:    2765676 MSHR_MERGE:          0
cpu0->LLC LOAD         ACCESS:    1042808 HIT:     207540 MISS:     835268 MSHR_MERGE:          0
cpu0->LLC RFO          ACCESS:     719965 HIT:     139932 MISS:     580033 MSHR_MERGE:          0
cpu0->LLC PREFETCH     ACCESS:          0 HIT:          0 MISS:          0 MSHR_MERGE:          0
cpu0->LLC WRITE        ACCESS:    1119399 HIT:     288044 MISS:     831355 MSHR_MERGE:          0
cpu0->LLC TRANSLATION  ACCESS:     641139 HIT:     122119 MISS:     519020 MSHR_MERGE:          0
cpu0->LLC PREFETCH REQUESTED:          0 ISSUED:          0 USEFUL:          0 USELESS:          0
cpu0->LLC AVERAGE MISS LATENCY: 202.7 cycles

DRAM Statistics

Channel 0 RQ ROW_BUFFER_HIT:      61517
  ROW_BUFFER_MISS:    1872691
  AVG DBUS CONGESTED CYCLE: 20.37
Channel 0 WQ ROW_BUFFER_HIT:     136851
  ROW_BUFFER_MISS:     744081
  FULL:         54
Channel 0 REFRESHES ISSUED:      21142
