[VMEM] WARNING: physical memory size is smaller than virtual memory size.
WARNING: option --warmup_instructions is deprecated. Use --warmup-instructions instead.
WARNING: option --simulation_instructions is deprecated. Use --simulation-instructions instead.

*** ChampSim Multicore Out-of-Order Simulator ***
Warmup Instructions: 20000000
Simulation Instructions: 50000000
Number of CPUs: 1
Page size: 8192

Off-chip DRAM Size: 16 GiB Channels: 1 Width: 64-bit Data Rate: 3205 MT/s
Heartbeat CPU 0 instructions: 10000002 cycles: 6253287 heartbeat IPC: 1.599 cumulative IPC: 1.599 (Simulation time: 00 hr 00 min 55 sec)
Warmup finished CPU 0 instructions: 20000000 cycles: 12239691 cumulative IPC: 1.634 (Simulation time: 00 hr 01 min 55 sec)
Warmup complete CPU 0 instructions: 20000000 cycles: 12239691 cumulative IPC: 1.634 (Simulation time: 00 hr 01 min 55 sec)
Heartbeat CPU 0 instructions: 20000002 cycles: 12239692 heartbeat IPC: 1.67 cumulative IPC: 2 (Simulation time: 00 hr 01 min 55 sec)
Heartbeat CPU 0 instructions: 30000005 cycles: 30855378 heartbeat IPC: 0.5372 cumulative IPC: 0.5372 (Simulation time: 00 hr 04 min 07 sec)
Heartbeat CPU 0 instructions: 40000005 cycles: 41168526 heartbeat IPC: 0.9696 cumulative IPC: 0.6914 (Simulation time: 00 hr 05 min 31 sec)
Heartbeat CPU 0 instructions: 50000007 cycles: 55802592 heartbeat IPC: 0.6833 cumulative IPC: 0.6887 (Simulation time: 00 hr 07 min 19 sec)
Heartbeat CPU 0 instructions: 60000009 cycles: 79049490 heartbeat IPC: 0.4302 cumulative IPC: 0.5987 (Simulation time: 00 hr 09 min 58 sec)
Simulation finished CPU 0 instructions: 50000000 cycles: 81044324 cumulative IPC: 0.6169 (Simulation time: 00 hr 11 min 45 sec)
Simulation complete CPU 0 instructions: 50000000 cycles: 81044324 cumulative IPC: 0.6169 (Simulation time: 00 hr 11 min 45 sec)

ChampSim completed all CPUs

=== Simulation ===
CPU 0 runs traces/429.mcf-217B.champsimtrace.xz

Region of Interest Statistics

CPU 0 cumulative IPC: 0.6169 instructions: 50000000 cycles: 81044324
CPU 0 Branch Prediction Accuracy: 98.95% MPKI: 1.194 Average ROB Occupancy at Mispredict: 70.79
Branch type MPKI
BRANCH_DIRECT_JUMP: 0
BRANCH_INDIRECT: 0
BRANCH_CONDITIONAL: 1.194
BRANCH_DIRECT_CALL: 0
BRANCH_INDIRECT_CALL: 0
BRANCH_RETURN: 0

cpu0->cpu0_STLB TOTAL        ACCESS:      57553 HIT:      55703 MISS:       1850 MSHR_MERGE:          0
cpu0->cpu0_STLB LOAD         ACCESS:      57553 HIT:      55703 MISS:       1850 MSHR_MERGE:          0
cpu0->cpu0_STLB RFO          ACCESS:          0 HIT:          0 MISS:          0 MSHR_MERGE:          0
cpu0->cpu0_STLB PREFETCH     ACCESS:          0 HIT:          0 MISS:          0 MSHR_MERGE:          0
cpu0->cpu0_STLB WRITE        ACCESS:          0 HIT:          0 MISS:          0 MSHR_MERGE:          0
cpu0->cpu0_STLB TRANSLATION  ACCESS:          0 HIT:          0 MISS:          0 MSHR_MERGE:          0
cpu0->cpu0_STLB PREFETCH REQUESTED:          0 ISSUED:          0 USEFUL:          0 USELESS:          0
cpu0->cpu0_STLB AVERAGE MISS LATENCY: 691.2 cycles
cpu0->cpu0_L2C TOTAL        ACCESS:   10254306 HIT:    4966734 MISS:    5287572 MSHR_MERGE:    2462350
cpu0->cpu0_L2C LOAD         ACCESS:    2598485 HIT:    1766802 MISS:     831683 MSHR_MERGE:     534965
cpu0->cpu0_L2C RFO          ACCESS:       1567 HIT:       1382 MISS:        185 MSHR_MERGE:          0
cpu0->cpu0_L2C PREFETCH     ACCESS:    7554631 HIT:    3102774 MISS:    4451857 MSHR_MERGE:    1927385
cpu0->cpu0_L2C WRITE        ACCESS:      96231 HIT:      95281 MISS:        950 MSHR_MERGE:          0
cpu0->cpu0_L2C TRANSLATION  ACCESS:       3392 HIT:        495 MISS:       2897 MSHR_MERGE:          0
cpu0->cpu0_L2C PREFETCH REQUESTED:    7554707 ISSUED:    7554620 USEFUL:    2282391 USELESS:     241887
cpu0->cpu0_L2C AVERAGE MISS LATENCY: 112.2 cycles
cpu0->cpu0_L1I TOTAL        ACCESS:    9430265 HIT:    9430265 MISS:          0 MSHR_MERGE:          0
cpu0->cpu0_L1I LOAD         ACCESS:    9430265 HIT:    9430265 MISS:          0 MSHR_MERGE:          0
cpu0->cpu0_L1I RFO          ACCESS:          0 HIT:          0 MISS:          0 MSHR_MERGE:          0
cpu0->cpu0_L1I PREFETCH     ACCESS:          0 HIT:          0 MISS:          0 MSHR_MERGE:          0
cpu0->cpu0_L1I WRITE        ACCESS:          0 HIT:          0 MISS:          0 MSHR_MERGE:          0
cpu0->cpu0_L1I TRANSLATION  ACCESS:          0 HIT:          0 MISS:          0 MSHR_MERGE:          0
cpu0->cpu0_L1I PREFETCH REQUESTED:          0 ISSUED:          0 USEFUL:          0 USELESS:          0
cpu0->cpu0_L1I AVERAGE MISS LATENCY: - cycles
cpu0->cpu0_L1D TOTAL        ACCESS:   17481982 HIT:   14655918 MISS:    2826064 MSHR_MERGE:     222601
cpu0->cpu0_L1D LOAD         ACCESS:    9363526 HIT:    6544239 MISS:    2819287 MSHR_MERGE:     220783
cpu0->cpu0_L1D RFO          ACCESS:          0 HIT:          0 MISS:          0 MSHR_MERGE:          0
cpu0->cpu0_L1D PREFETCH     ACCESS:          0 HIT:          0 MISS:          0 MSHR_MERGE:          0
cpu0->cpu0_L1D WRITE        ACCESS:    8114749 HIT:    8111364 MISS:       3385 MSHR_MERGE:       1818
cpu0->cpu0_L1D TRANSLATION  ACCESS:       3707 HIT:        315 MISS:       3392 MSHR_MERGE:          0
cpu0->cpu0_L1D PREFETCH REQUESTED:          0 ISSUED:          0 USEFUL:          0 USELESS:          0
cpu0->cpu0_L1D AVERAGE MISS LATENCY: 44.35 cycles
cpu0->cpu0_ITLB TOTAL        ACCESS:    8108147 HIT:    8108147 MISS:          0 MSHR_MERGE:          0
cpu0->cpu0_ITLB LOAD         ACCESS:    8108147 HIT:    8108147 MISS:          0 MSHR_MERGE:          0
cpu0->cpu0_ITLB RFO          ACCESS:          0 HIT:          0 MISS:          0 MSHR_MERGE:          0
cpu0->cpu0_ITLB PREFETCH     ACCESS:          0 HIT:          0 MISS:          0 MSHR_MERGE:          0
cpu0->cpu0_ITLB WRITE        ACCESS:          0 HIT:          0 MISS:          0 MSHR_MERGE:          0
cpu0->cpu0_ITLB TRANSLATION  ACCESS:          0 HIT:          0 MISS:          0 MSHR_MERGE:          0
cpu0->cpu0_ITLB PREFETCH REQUESTED:          0 ISSUED:          0 USEFUL:          0 USELESS:          0
cpu0->cpu0_ITLB AVERAGE MISS LATENCY: - cycles
cpu0->cpu0_DTLB TOTAL        ACCESS:   15794745 HIT:   15714458 MISS:      80287 MSHR_MERGE:      22734
cpu0->cpu0_DTLB LOAD         ACCESS:   15794745 HIT:   15714458 MISS:      80287 MSHR_MERGE:      22734
cpu0->cpu0_DTLB RFO          ACCESS:          0 HIT:          0 MISS:          0 MSHR_MERGE:          0
cpu0->cpu0_DTLB PREFETCH     ACCESS:          0 HIT:          0 MISS:          0 MSHR_MERGE:          0
cpu0->cpu0_DTLB WRITE        ACCESS:          0 HIT:          0 MISS:          0 MSHR_MERGE:          0
cpu0->cpu0_DTLB TRANSLATION  ACCESS:          0 HIT:          0 MISS:          0 MSHR_MERGE:          0
cpu0->cpu0_DTLB PREFETCH REQUESTED:          0 ISSUED:          0 USEFUL:          0 USELESS:          0
cpu0->cpu0_DTLB AVERAGE MISS LATENCY: 26.25 cycles
cpu0->LLC TOTAL        ACCESS:    2905145 HIT:     685819 MISS:    2219326 MSHR_MERGE:          0
cpu0->LLC LOAD         ACCESS:     296718 HIT:      45188 MISS:     251530 MSHR_MERGE:          0
cpu0->LLC RFO          ACCESS:        185 HIT:        153 MISS:         32 MSHR_MERGE:          0
cpu0->LLC PREFETCH     ACCESS:    2524472 HIT:     619407 MISS:    1905065 MSHR_MERGE:          0
cpu0->LLC WRITE        ACCESS:      80873 HIT:      21062 MISS:      59811 MSHR_MERGE:          0
cpu0->LLC TRANSLATION  ACCESS:       2897 HIT:          9 MISS:       2888 MSHR_MERGE:          0
cpu0->LLC PREFETCH REQUESTED:          0 ISSUED:          0 USEFUL:          0 USELESS:          0
cpu0->LLC AVERAGE MISS LATENCY: 134.2 cycles

DRAM Statistics

Channel 0 RQ ROW_BUFFER_HIT:     254843
  ROW_BUFFER_MISS:    1904470
  AVG DBUS CONGESTED CYCLE: 9.627
Channel 0 WQ ROW_BUFFER_HIT:      12871
  ROW_BUFFER_MISS:      63234
  FULL:          0
Channel 0 REFRESHES ISSUED:       6754
