[VMEM] WARNING: physical memory size is smaller than virtual memory size.
WARNING: option --warmup_instructions is deprecated. Use --warmup-instructions instead.
WARNING: option --simulation_instructions is deprecated. Use --simulation-instructions instead.

*** ChampSim Multicore Out-of-Order Simulator ***
Warmup Instructions: 20000000
Simulation Instructions: 50000000
Number of CPUs: 1
Page size: 8192

Off-chip DRAM Size: 32 GiB Channels: 2 Width: 64-bit Data Rate: 3205 MT/s
Heartbeat CPU 0 instructions: 10000001 cycles: 4633409 heartbeat IPC: 2.158 cumulative IPC: 2.158 (Simulation time: 00 hr 00 min 46 sec)
Heartbeat CPU 0 instructions: 20000002 cycles: 9212909 heartbeat IPC: 2.184 cumulative IPC: 2.171 (Simulation time: 00 hr 01 min 31 sec)
Warmup finished CPU 0 instructions: 20000002 cycles: 9212909 cumulative IPC: 2.171 (Simulation time: 00 hr 01 min 31 sec)
Warmup complete CPU 0 instructions: 20000002 cycles: 9212909 cumulative IPC: 2.171 (Simulation time: 00 hr 01 min 31 sec)
Heartbeat CPU 0 instructions: 30000005 cycles: 38386225 heartbeat IPC: 0.3428 cumulative IPC: 0.3428 (Simulation time: 00 hr 03 min 30 sec)
Heartbeat CPU 0 instructions: 40000005 cycles: 67157725 heartbeat IPC: 0.3476 cumulative IPC: 0.3452 (Simulation time: 00 hr 05 min 28 sec)
Heartbeat CPU 0 instructions: 50000007 cycles: 96338544 heartbeat IPC: 0.3427 cumulative IPC: 0.3443 (Simulation time: 00 hr 07 min 27 sec)
Heartbeat CPU 0 instructions: 60000007 cycles: 125307270 heartbeat IPC: 0.3452 cumulative IPC: 0.3445 (Simulation time: 00 hr 09 min 26 sec)
Simulation finished CPU 0 instructions: 50000001 cycles: 145302121 cumulative IPC: 0.3441 (Simulation time: 00 hr 11 min 26 sec)
Simulation complete CPU 0 instructions: 50000001 cycles: 145302121 cumulative IPC: 0.3441 (Simulation time: 00 hr 11 min 26 sec)

ChampSim completed all CPUs

=== Simulation ===
CPU 0 runs traces/605.mcf_s-1152B.champsimtrace.xz

Region of Interest Statistics

CPU 0 cumulative IPC: 0.3441 instructions: 50000001 cycles: 145302121
CPU 0 Branch Prediction Accuracy: 90.19% MPKI: 24.48 Average ROB Occupancy at Mispredict: 21.43
Branch type MPKI
BRANCH_DIRECT_JUMP: 0.2057
BRANCH_INDIRECT: 0
BRANCH_CONDITIONAL: 24.27
BRANCH_DIRECT_CALL: 0
BRANCH_INDIRECT_CALL: 0.0036
BRANCH_RETURN: 2e-05

cpu0->cpu0_STLB TOTAL        ACCESS:    1006100 HIT:    1000343 MISS:       5757 MSHR_MERGE:          0
cpu0->cpu0_STLB LOAD         ACCESS:    1006100 HIT:    1000343 MISS:       5757 MSHR_MERGE:          0
cpu0->cpu0_STLB RFO          ACCESS:          0 HIT:          0 MISS:          0 MSHR_MERGE:          0
cpu0->cpu0_STLB PREFETCH     ACCESS:          0 HIT:          0 MISS:          0 MSHR_MERGE:          0
cpu0->cpu0_STLB WRITE        ACCESS:          0 HIT:          0 MISS:          0 MSHR_MERGE:          0
cpu0->cpu0_STLB TRANSLATION  ACCESS:          0 HIT:          0 MISS:          0 MSHR_MERGE:          0
cpu0->cpu0_STLB PREFETCH REQUESTED:          0 ISSUED:          0 USEFUL:          0 USELESS:          0
cpu0->cpu0_STLB AVERAGE MISS LATENCY: 616.6 cycles
cpu0->cpu0_L2C TOTAL        ACCESS:    9223655 HIT:    3473595 MISS:    5750060 MSHR_MERGE:     209109
cpu0->cpu0_L2C LOAD         ACCESS:    2552720 HIT:    1087356 MISS:    1465364 MSHR_MERGE:      43134
cpu0->cpu0_L2C RFO          ACCESS:     187381 HIT:      25769 MISS:     161612 MSHR_MERGE:          2
cpu0->cpu0_L2C PREFETCH     ACCESS:    6209462 HIT:    2096971 MISS:    4112491 MSHR_MERGE:     165973
cpu0->cpu0_L2C WRITE        ACCESS:     265740 HIT:     262069 MISS:       3671 MSHR_MERGE:          0
cpu0->cpu0_L2C TRANSLATION  ACCESS:       8352 HIT:       1430 MISS:       6922 MSHR_MERGE:          0
cpu0->cpu0_L2C PREFETCH REQUESTED:    6210484 ISSUED:    6209465 USEFUL:     820324 USELESS:    3125846
cpu0->cpu0_L2C AVERAGE MISS LATENCY: 54.19 cycles
cpu0->cpu0_L1I TOTAL        ACCESS:     434575 HIT:     434575 MISS:          0 MSHR_MERGE:          0
cpu0->cpu0_L1I LOAD         ACCESS:     434575 HIT:     434575 MISS:          0 MSHR_MERGE:          0
cpu0->cpu0_L1I RFO          ACCESS:          0 HIT:          0 MISS:          0 MSHR_MERGE:          0
cpu0->cpu0_L1I PREFETCH     ACCESS:          0 HIT:          0 MISS:          0 MSHR_MERGE:          0
cpu0->cpu0_L1I WRITE        ACCESS:          0 HIT:          0 MISS:          0 MSHR_MERGE:          0
cpu0->cpu0_L1I TRANSLATION  ACCESS:          0 HIT:          0 MISS:          0 MSHR_MERGE:          0
cpu0->cpu0_L1I PREFETCH REQUESTED:          0 ISSUED:          0 USEFUL:          0 USELESS:          0
cpu0->cpu0_L1I AVERAGE MISS LATENCY: - cycles
cpu0->cpu0_L1D TOTAL        ACCESS:   17979175 HIT:   14378746 MISS:    3600429 MSHR_MERGE:     851973
cpu0->cpu0_L1D LOAD         ACCESS:   12803223 HIT:    9719242 MISS:    3083981 MSHR_MERGE:     531261
cpu0->cpu0_L1D RFO          ACCESS:          0 HIT:          0 MISS:          0 MSHR_MERGE:          0
cpu0->cpu0_L1D PREFETCH     ACCESS:          0 HIT:          0 MISS:          0 MSHR_MERGE:          0
cpu0->cpu0_L1D WRITE        ACCESS:    5164342 HIT:    4656246 MISS:     508096 MSHR_MERGE:     320712
cpu0->cpu0_L1D TRANSLATION  ACCESS:      11610 HIT:       3258 MISS:       8352 MSHR_MERGE:          0
cpu0->cpu0_L1D PREFETCH REQUESTED:          0 ISSUED:          0 USEFUL:          0 USELESS:          0
cpu0->cpu0_L1D AVERAGE MISS LATENCY: 41.55 cycles
cpu0->cpu0_ITLB TOTAL        ACCESS:     403020 HIT:     403020 MISS:          0 MSHR_MERGE:          0
cpu0->cpu0_ITLB LOAD         ACCESS:     403020 HIT:     403020 MISS:          0 MSHR_MERGE:          0
cpu0->cpu0_ITLB RFO          ACCESS:          0 HIT:          0 MISS:          0 MSHR_MERGE:          0
cpu0->cpu0_ITLB PREFETCH     ACCESS:          0 HIT:          0 MISS:          0 MSHR_MERGE:          0
cpu0->cpu0_ITLB WRITE        ACCESS:          0 HIT:          0 MISS:          0 MSHR_MERGE:          0
cpu0->cpu0_ITLB TRANSLATION  ACCESS:          0 HIT:          0 MISS:          0 MSHR_MERGE:          0
cpu0->cpu0_ITLB PREFETCH REQUESTED:          0 ISSUED:          0 USEFUL:          0 USELESS:          0
cpu0->cpu0_ITLB AVERAGE MISS LATENCY: - cycles
cpu0->cpu0_DTLB TOTAL        ACCESS:   16840065 HIT:   15646651 MISS:    1193414 MSHR_MERGE:     187314
cpu0->cpu0_DTLB LOAD         ACCESS:   16840065 HIT:   15646651 MISS:    1193414 MSHR_MERGE:     187314
cpu0->cpu0_DTLB RFO          ACCESS:          0 HIT:          0 MISS:          0 MSHR_MERGE:          0
cpu0->cpu0_DTLB PREFETCH     ACCESS:          0 HIT:          0 MISS:          0 MSHR_MERGE:          0
cpu0->cpu0_DTLB WRITE        ACCESS:          0 HIT:          0 MISS:          0 MSHR_MERGE:          0
cpu0->cpu0_DTLB TRANSLATION  ACCESS:          0 HIT:          0 MISS:          0 MSHR_MERGE:          0
cpu0->cpu0_DTLB PREFETCH REQUESTED:          0 ISSUED:          0 USEFUL:          0 USELESS:          0
cpu0->cpu0_DTLB AVERAGE MISS LATENCY: 7.534 cycles
cpu0->LLC TOTAL        ACCESS:    5758055 HIT:    3231942 MISS:    2526113 MSHR_MERGE:          0
cpu0->LLC LOAD         ACCESS:    1422230 HIT:    1022989 MISS:     399241 MSHR_MERGE:          0
cpu0->LLC RFO          ACCESS:     161610 HIT:     148045 MISS:      13565 MSHR_MERGE:          0
cpu0->LLC PREFETCH     ACCESS:    3946518 HIT:    1854973 MISS:    2091545 MSHR_MERGE:          0
cpu0->LLC WRITE        ACCESS:     220775 HIT:     205893 MISS:      14882 MSHR_MERGE:          0
cpu0->LLC TRANSLATION  ACCESS:       6922 HIT:         42 MISS:       6880 MSHR_MERGE:          0
cpu0->LLC PREFETCH REQUESTED:          0 ISSUED:          0 USEFUL:          0 USELESS:          0
cpu0->LLC AVERAGE MISS LATENCY: 138.6 cycles

DRAM Statistics

Channel 0 RQ ROW_BUFFER_HIT:      14667
  ROW_BUFFER_MISS:    1241691
  AVG DBUS CONGESTED CYCLE: 11.97
Channel 0 WQ ROW_BUFFER_HIT:       2825
  ROW_BUFFER_MISS:       9357
  FULL:          0
Channel 0 REFRESHES ISSUED:      12109

Channel 1 RQ ROW_BUFFER_HIT:      14948
  ROW_BUFFER_MISS:    1239898
  AVG DBUS CONGESTED CYCLE: 11.35
Channel 1 WQ ROW_BUFFER_HIT:       2496
  ROW_BUFFER_MISS:       8222
  FULL:          0
Channel 1 REFRESHES ISSUED:      12109
