[VMEM] WARNING: physical memory size is smaller than virtual memory size.
WARNING: option --warmup_instructions is deprecated. Use --warmup-instructions instead.
WARNING: option --simulation_instructions is deprecated. Use --simulation-instructions instead.

*** ChampSim Multicore Out-of-Order Simulator ***
Warmup Instructions: 20000000
Simulation Instructions: 50000000
Number of CPUs: 1
Page size: 8192

Off-chip DRAM Size: 32 GiB Channels: 2 Width: 64-bit Data Rate: 3205 MT/s
Heartbeat CPU 0 instructions: 10000000 cycles: 4302808 heartbeat IPC: 2.324 cumulative IPC: 2.324 (Simulation time: 00 hr 00 min 44 sec)
Heartbeat CPU 0 instructions: 20000000 cycles: 8598038 heartbeat IPC: 2.328 cumulative IPC: 2.326 (Simulation time: 00 hr 01 min 26 sec)
Warmup finished CPU 0 instructions: 20000000 cycles: 8598038 cumulative IPC: 2.326 (Simulation time: 00 hr 01 min 26 sec)
Warmup complete CPU 0 instructions: 20000000 cycles: 8598038 cumulative IPC: 2.326 (Simulation time: 00 hr 01 min 26 sec)
Heartbeat CPU 0 instructions: 30000002 cycles: 16850671 heartbeat IPC: 1.212 cumulative IPC: 1.212 (Simulation time: 00 hr 02 min 27 sec)
Heartbeat CPU 0 instructions: 40000004 cycles: 25063177 heartbeat IPC: 1.218 cumulative IPC: 1.215 (Simulation time: 00 hr 03 min 28 sec)
Heartbeat CPU 0 instructions: 50000007 cycles: 33277343 heartbeat IPC: 1.217 cumulative IPC: 1.216 (Simulation time: 00 hr 04 min 28 sec)
Heartbeat CPU 0 instructions: 60000009 cycles: 41489338 heartbeat IPC: 1.218 cumulative IPC: 1.216 (Simulation time: 00 hr 05 min 29 sec)
Simulation finished CPU 0 instructions: 50000000 cycles: 41113025 cumulative IPC: 1.216 (Simulation time: 00 hr 06 min 31 sec)
Simulation complete CPU 0 instructions: 50000000 cycles: 41113025 cumulative IPC: 1.216 (Simulation time: 00 hr 06 min 31 sec)

ChampSim completed all CPUs

=== Simulation ===
CPU 0 runs traces/603.bwaves_s-1740B.champsimtrace.xz

Region of Interest Statistics

CPU 0 cumulative IPC: 1.216 instructions: 50000000 cycles: 41113025
CPU 0 Branch Prediction Accuracy: 99.97% MPKI: 0.00734 Average ROB Occupancy at Mispredict: 190.1
Branch type MPKI
BRANCH_DIRECT_JUMP: 0
BRANCH_INDIRECT: 0
BRANCH_CONDITIONAL: 0.00734
BRANCH_DIRECT_CALL: 0
BRANCH_INDIRECT_CALL: 0
BRANCH_RETURN: 0

cpu0->cpu0_STLB TOTAL        ACCESS:       7425 HIT:        365 MISS:       7060 MSHR_MERGE:          0
cpu0->cpu0_STLB LOAD         ACCESS:       7425 HIT:        365 MISS:       7060 MSHR_MERGE:          0
cpu0->cpu0_STLB RFO          ACCESS:          0 HIT:          0 MISS:          0 MSHR_MERGE:          0
cpu0->cpu0_STLB PREFETCH     ACCESS:          0 HIT:          0 MISS:          0 MSHR_MERGE:          0
cpu0->cpu0_STLB WRITE        ACCESS:          0 HIT:          0 MISS:          0 MSHR_MERGE:          0
cpu0->cpu0_STLB TRANSLATION  ACCESS:          0 HIT:          0 MISS:          0 MSHR_MERGE:          0
cpu0->cpu0_STLB PREFETCH REQUESTED:          0 ISSUED:          0 USEFUL:          0 USELESS:          0
cpu0->cpu0_STLB AVERAGE MISS LATENCY: 671.1 cycles
cpu0->cpu0_L2C TOTAL        ACCESS:    3054940 HIT:    2009180 MISS:    1045760 MSHR_MERGE:      79106
cpu0->cpu0_L2C LOAD         ACCESS:    1020605 HIT:     944060 MISS:      76545 MSHR_MERGE:      44581
cpu0->cpu0_L2C RFO          ACCESS:      32882 HIT:       8520 MISS:      24362 MSHR_MERGE:          0
cpu0->cpu0_L2C PREFETCH     ACCESS:    1951240 HIT:    1016877 MISS:     934363 MSHR_MERGE:      34525
cpu0->cpu0_L2C WRITE        ACCESS:      36658 HIT:      36626 MISS:         32 MSHR_MERGE:          0
cpu0->cpu0_L2C TRANSLATION  ACCESS:      13555 HIT:       3097 MISS:      10458 MSHR_MERGE:          0
cpu0->cpu0_L2C PREFETCH REQUESTED:    2015538 ISSUED:    1951240 USEFUL:     899395 USELESS:        395
cpu0->cpu0_L2C AVERAGE MISS LATENCY: 143.5 cycles
cpu0->cpu0_L1I TOTAL        ACCESS:   12007945 HIT:   12007945 MISS:          0 MSHR_MERGE:          0
cpu0->cpu0_L1I LOAD         ACCESS:   12007945 HIT:   12007945 MISS:          0 MSHR_MERGE:          0
cpu0->cpu0_L1I RFO          ACCESS:          0 HIT:          0 MISS:          0 MSHR_MERGE:          0
cpu0->cpu0_L1I PREFETCH     ACCESS:          0 HIT:          0 MISS:          0 MSHR_MERGE:          0
cpu0->cpu0_L1I WRITE        ACCESS:          0 HIT:          0 MISS:          0 MSHR_MERGE:          0
cpu0->cpu0_L1I TRANSLATION  ACCESS:          0 HIT:          0 MISS:          0 MSHR_MERGE:          0
cpu0->cpu0_L1I PREFETCH REQUESTED:          0 ISSUED:          0 USEFUL:          0 USELESS:          0
cpu0->cpu0_L1I AVERAGE MISS LATENCY: - cycles
cpu0->cpu0_L1D TOTAL        ACCESS:   16996268 HIT:   15857394 MISS:    1138874 MSHR_MERGE:      71679
cpu0->cpu0_L1D LOAD         ACCESS:   14165511 HIT:   13095623 MISS:    1069888 MSHR_MERGE:      49209
cpu0->cpu0_L1D RFO          ACCESS:          0 HIT:          0 MISS:          0 MSHR_MERGE:          0
cpu0->cpu0_L1D PREFETCH     ACCESS:          0 HIT:          0 MISS:          0 MSHR_MERGE:          0
cpu0->cpu0_L1D WRITE        ACCESS:    2816699 HIT:    2761473 MISS:      55226 MSHR_MERGE:      22265
cpu0->cpu0_L1D TRANSLATION  ACCESS:      14058 HIT:        298 MISS:      13760 MSHR_MERGE:        205
cpu0->cpu0_L1D PREFETCH REQUESTED:          0 ISSUED:          0 USEFUL:          0 USELESS:          0
cpu0->cpu0_L1D AVERAGE MISS LATENCY: 32.49 cycles
cpu0->cpu0_ITLB TOTAL        ACCESS:   10874969 HIT:   10874969 MISS:          0 MSHR_MERGE:          0
cpu0->cpu0_ITLB LOAD         ACCESS:   10874969 HIT:   10874969 MISS:          0 MSHR_MERGE:          0
cpu0->cpu0_ITLB RFO          ACCESS:          0 HIT:          0 MISS:          0 MSHR_MERGE:          0
cpu0->cpu0_ITLB PREFETCH     ACCESS:          0 HIT:          0 MISS:          0 MSHR_MERGE:          0
cpu0->cpu0_ITLB WRITE        ACCESS:          0 HIT:          0 MISS:          0 MSHR_MERGE:          0
cpu0->cpu0_ITLB TRANSLATION  ACCESS:          0 HIT:          0 MISS:          0 MSHR_MERGE:          0
cpu0->cpu0_ITLB PREFETCH REQUESTED:          0 ISSUED:          0 USEFUL:          0 USELESS:          0
cpu0->cpu0_ITLB AVERAGE MISS LATENCY: - cycles
cpu0->cpu0_DTLB TOTAL        ACCESS:   16346781 HIT:   16334081 MISS:      12700 MSHR_MERGE:       5275
cpu0->cpu0_DTLB LOAD         ACCESS:   16346781 HIT:   16334081 MISS:      12700 MSHR_MERGE:       5275
cpu0->cpu0_DTLB RFO          ACCESS:          0 HIT:          0 MISS:          0 MSHR_MERGE:          0
cpu0->cpu0_DTLB PREFETCH     ACCESS:          0 HIT:          0 MISS:          0 MSHR_MERGE:          0
cpu0->cpu0_DTLB WRITE        ACCESS:          0 HIT:          0 MISS:          0 MSHR_MERGE:          0
cpu0->cpu0_DTLB TRANSLATION  ACCESS:          0 HIT:          0 MISS:          0 MSHR_MERGE:          0
cpu0->cpu0_DTLB PREFETCH REQUESTED:          0 ISSUED:          0 USEFUL:          0 USELESS:          0
cpu0->cpu0_DTLB AVERAGE MISS LATENCY: 643 cycles
cpu0->LLC TOTAL        ACCESS:     991106 HIT:       4743 MISS:     986363 MSHR_MERGE:          0
cpu0->LLC LOAD         ACCESS:      31964 HIT:        307 MISS:      31657 MSHR_MERGE:          0
cpu0->LLC RFO          ACCESS:      24362 HIT:          0 MISS:      24362 MSHR_MERGE:          0
cpu0->LLC PREFETCH     ACCESS:     899838 HIT:       1526 MISS:     898312 MSHR_MERGE:          0
cpu0->LLC WRITE        ACCESS:      24484 HIT:       2906 MISS:      21578 MSHR_MERGE:          0
cpu0->LLC TRANSLATION  ACCESS:      10458 HIT:          4 MISS:      10454 MSHR_MERGE:          0
cpu0->LLC PREFETCH REQUESTED:          0 ISSUED:          0 USEFUL:          0 USELESS:          0
cpu0->LLC AVERAGE MISS LATENCY: 117.3 cycles

DRAM Statistics

Channel 0 RQ ROW_BUFFER_HIT:        498
  ROW_BUFFER_MISS:     481856
  AVG DBUS CONGESTED CYCLE: 5.437
Channel 0 WQ ROW_BUFFER_HIT:       1360
  ROW_BUFFER_MISS:      10810
  FULL:          0
Channel 0 REFRESHES ISSUED:       3426

Channel 1 RQ ROW_BUFFER_HIT:        513
  ROW_BUFFER_MISS:     481918
  AVG DBUS CONGESTED CYCLE: 5.454
Channel 1 WQ ROW_BUFFER_HIT:       1393
  ROW_BUFFER_MISS:      10782
  FULL:          0
Channel 1 REFRESHES ISSUED:       3426
