[VMEM] WARNING: physical memory size is smaller than virtual memory size.
WARNING: option --warmup_instructions is deprecated. Use --warmup-instructions instead.
WARNING: option --simulation_instructions is deprecated. Use --simulation-instructions instead.

*** ChampSim Multicore Out-of-Order Simulator ***
Warmup Instructions: 20000000
Simulation Instructions: 50000000
Number of CPUs: 1
Page size: 8192

Off-chip DRAM Size: 16 GiB Channels: 1 Width: 64-bit Data Rate: 3205 MT/s
Heartbeat CPU 0 instructions: 10000003 cycles: 6086217 heartbeat IPC: 1.643 cumulative IPC: 1.643 (Simulation time: 00 hr 01 min 02 sec)
Warmup finished CPU 0 instructions: 20000002 cycles: 12017076 cumulative IPC: 1.664 (Simulation time: 00 hr 02 min 09 sec)
Warmup complete CPU 0 instructions: 20000002 cycles: 12017076 cumulative IPC: 1.664 (Simulation time: 00 hr 02 min 09 sec)
Heartbeat CPU 0 instructions: 20000005 cycles: 12017099 heartbeat IPC: 1.686 cumulative IPC: 0.1304 (Simulation time: 00 hr 02 min 09 sec)
Heartbeat CPU 0 instructions: 30000008 cycles: 41081053 heartbeat IPC: 0.3441 cumulative IPC: 0.3441 (Simulation time: 00 hr 05 min 24 sec)
Heartbeat CPU 0 instructions: 40000009 cycles: 53937847 heartbeat IPC: 0.7778 cumulative IPC: 0.4771 (Simulation time: 00 hr 07 min 01 sec)
Heartbeat CPU 0 instructions: 50000009 cycles: 75291270 heartbeat IPC: 0.4683 cumulative IPC: 0.4741 (Simulation time: 00 hr 09 min 28 sec)
Heartbeat CPU 0 instructions: 60000010 cycles: 112964980 heartbeat IPC: 0.2654 cumulative IPC: 0.3962 (Simulation time: 00 hr 13 min 34 sec)
Simulation finished CPU 0 instructions: 50000000 cycles: 121278511 cumulative IPC: 0.4123 (Simulation time: 00 hr 15 min 56 sec)
Simulation complete CPU 0 instructions: 50000000 cycles: 121278511 cumulative IPC: 0.4123 (Simulation time: 00 hr 15 min 56 sec)

ChampSim completed all CPUs

=== Simulation ===
CPU 0 runs traces/429.mcf-217B.champsimtrace.xz

Region of Interest Statistics

CPU 0 cumulative IPC: 0.4123 instructions: 50000000 cycles: 121278511
CPU 0 Branch Prediction Accuracy: 98.95% MPKI: 1.194 Average ROB Occupancy at Mispredict: 120.8
Branch type MPKI
BRANCH_DIRECT_JUMP: 0
BRANCH_INDIRECT: 0
BRANCH_CONDITIONAL: 1.194
BRANCH_DIRECT_CALL: 0
BRANCH_INDIRECT_CALL: 0
BRANCH_RETURN: 0

cpu0->cpu0_STLB TOTAL        ACCESS:      57940 HIT:      56090 MISS:       1850 MSHR_MERGE:          0
cpu0->cpu0_STLB LOAD         ACCESS:      57940 HIT:      56090 MISS:       1850 MSHR_MERGE:          0
cpu0->cpu0_STLB RFO          ACCESS:          0 HIT:          0 MISS:          0 MSHR_MERGE:          0
cpu0->cpu0_STLB PREFETCH     ACCESS:          0 HIT:          0 MISS:          0 MSHR_MERGE:          0
cpu0->cpu0_STLB WRITE        ACCESS:          0 HIT:          0 MISS:          0 MSHR_MERGE:          0
cpu0->cpu0_STLB TRANSLATION  ACCESS:          0 HIT:          0 MISS:          0 MSHR_MERGE:          0
cpu0->cpu0_STLB PREFETCH REQUESTED:          0 ISSUED:          0 USEFUL:          0 USELESS:          0
cpu0->cpu0_STLB AVERAGE MISS LATENCY: 810 cycles
cpu0->cpu0_L2C TOTAL        ACCESS:    9828715 HIT:    5704865 MISS:    4123850 MSHR_MERGE:    1336112
cpu0->cpu0_L2C LOAD         ACCESS:    2598487 HIT:    1830341 MISS:     768146 MSHR_MERGE:     485213
cpu0->cpu0_L2C RFO          ACCESS:       1567 HIT:       1351 MISS:        216 MSHR_MERGE:          0
cpu0->cpu0_L2C PREFETCH     ACCESS:    7129053 HIT:    3777387 MISS:    3351666 MSHR_MERGE:     850899
cpu0->cpu0_L2C WRITE        ACCESS:      96219 HIT:      95292 MISS:        927 MSHR_MERGE:          0
cpu0->cpu0_L2C TRANSLATION  ACCESS:       3389 HIT:        494 MISS:       2895 MSHR_MERGE:          0
cpu0->cpu0_L2C PREFETCH REQUESTED:    7129079 ISSUED:    7129043 USEFUL:    2296117 USELESS:     204496
cpu0->cpu0_L2C AVERAGE MISS LATENCY: 157.8 cycles
cpu0->cpu0_L1I TOTAL        ACCESS:    9432566 HIT:    9432566 MISS:          0 MSHR_MERGE:          0
cpu0->cpu0_L1I LOAD         ACCESS:    9432566 HIT:    9432566 MISS:          0 MSHR_MERGE:          0
cpu0->cpu0_L1I RFO          ACCESS:          0 HIT:          0 MISS:          0 MSHR_MERGE:          0
cpu0->cpu0_L1I PREFETCH     ACCESS:          0 HIT:          0 MISS:          0 MSHR_MERGE:          0
cpu0->cpu0_L1I WRITE        ACCESS:          0 HIT:          0 MISS:          0 MSHR_MERGE:          0
cpu0->cpu0_L1I TRANSLATION  ACCESS:          0 HIT:          0 MISS:          0 MSHR_MERGE:          0
cpu0->cpu0_L1I PREFETCH REQUESTED:          0 ISSUED:          0 USEFUL:          0 USELESS:          0
cpu0->cpu0_L1I AVERAGE MISS LATENCY: - cycles
cpu0->cpu0_L1D TOTAL        ACCESS:   16472038 HIT:   13773627 MISS:    2698411 MSHR_MERGE:      94936
cpu0->cpu0_L1D LOAD         ACCESS:    8596243 HIT:    5905018 MISS:    2691225 MSHR_MERGE:      92706
cpu0->cpu0_L1D RFO          ACCESS:          0 HIT:          0 MISS:          0 MSHR_MERGE:          0
cpu0->cpu0_L1D PREFETCH     ACCESS:          0 HIT:          0 MISS:          0 MSHR_MERGE:          0
cpu0->cpu0_L1D WRITE        ACCESS:    7872088 HIT:    7868291 MISS:       3797 MSHR_MERGE:       2230
cpu0->cpu0_L1D TRANSLATION  ACCESS:       3707 HIT:        318 MISS:       3389 MSHR_MERGE:          0
cpu0->cpu0_L1D PREFETCH REQUESTED:          0 ISSUED:          0 USEFUL:          0 USELESS:          0
cpu0->cpu0_L1D AVERAGE MISS LATENCY: 55.12 cycles
cpu0->cpu0_ITLB TOTAL        ACCESS:    8258648 HIT:    8258648 MISS:          0 MSHR_MERGE:          0
cpu0->cpu0_ITLB LOAD         ACCESS:    8258648 HIT:    8258648 MISS:          0 MSHR_MERGE:          0
cpu0->cpu0_ITLB RFO          ACCESS:          0 HIT:          0 MISS:          0 MSHR_MERGE:          0
cpu0->cpu0_ITLB PREFETCH     ACCESS:          0 HIT:          0 MISS:          0 MSHR_MERGE:          0
cpu0->cpu0_ITLB WRITE        ACCESS:          0 HIT:          0 MISS:          0 MSHR_MERGE:          0
cpu0->cpu0_ITLB TRANSLATION  ACCESS:          0 HIT:          0 MISS:          0 MSHR_MERGE:          0
cpu0->cpu0_ITLB PREFETCH REQUESTED:          0 ISSUED:          0 USEFUL:          0 USELESS:          0
cpu0->cpu0_ITLB AVERAGE MISS LATENCY: - cycles
cpu0->cpu0_DTLB TOTAL        ACCESS:   14947882 HIT:   14874049 MISS:      73833 MSHR_MERGE:      15893
cpu0->cpu0_DTLB LOAD         ACCESS:   14947882 HIT:   14874049 MISS:      73833 MSHR_MERGE:      15893
cpu0->cpu0_DTLB RFO          ACCESS:          0 HIT:          0 MISS:          0 MSHR_MERGE:          0
cpu0->cpu0_DTLB PREFETCH     ACCESS:          0 HIT:          0 MISS:          0 MSHR_MERGE:          0
cpu0->cpu0_DTLB WRITE        ACCESS:          0 HIT:          0 MISS:          0 MSHR_MERGE:          0
cpu0->cpu0_DTLB TRANSLATION  ACCESS:          0 HIT:          0 MISS:          0 MSHR_MERGE:          0
cpu0->cpu0_DTLB PREFETCH REQUESTED:          0 ISSUED:          0 USEFUL:          0 USELESS:          0
cpu0->cpu0_DTLB AVERAGE MISS LATENCY: 29.89 cycles
cpu0->LLC TOTAL        ACCESS:    2867680 HIT:     683100 MISS:    2184580 MSHR_MERGE:          0
cpu0->LLC LOAD         ACCESS:     282933 HIT:      45443 MISS:     237490 MSHR_MERGE:          0
cpu0->LLC RFO          ACCESS:        216 HIT:        186 MISS:         30 MSHR_MERGE:          0
cpu0->LLC PREFETCH     ACCESS:    2500764 HIT:     616162 MISS:    1884602 MSHR_MERGE:          0
cpu0->LLC WRITE        ACCESS:      80872 HIT:      21299 MISS:      59573 MSHR_MERGE:          0
cpu0->LLC TRANSLATION  ACCESS:       2895 HIT:         10 MISS:       2885 MSHR_MERGE:          0
cpu0->LLC PREFETCH REQUESTED:          0 ISSUED:          0 USEFUL:          0 USELESS:          0
cpu0->LLC AVERAGE MISS LATENCY: 184.2 cycles

DRAM Statistics

Channel 0 RQ ROW_BUFFER_HIT:     236062
  ROW_BUFFER_MISS:    1888611
  AVG DBUS CONGESTED CYCLE: 23.36
Channel 0 WQ ROW_BUFFER_HIT:      16063
  ROW_BUFFER_MISS:      59964
  FULL:          0
Channel 0 REFRESHES ISSUED:      10106
