[VMEM] WARNING: physical memory size is smaller than virtual memory size.
WARNING: option --warmup_instructions is deprecated. Use --warmup-instructions instead.
WARNING: option --simulation_instructions is deprecated. Use --simulation-instructions instead.

*** ChampSim Multicore Out-of-Order Simulator ***
Warmup Instructions: 20000000
Simulation Instructions: 50000000
Number of CPUs: 1
Page size: 8192

Off-chip DRAM Size: 16 GiB Channels: 1 Width: 64-bit Data Rate: 3205 MT/s
Heartbeat CPU 0 instructions: 10000000 cycles: 4882710 heartbeat IPC: 2.048 cumulative IPC: 2.048 (Simulation time: 00 hr 00 min 53 sec)
Heartbeat CPU 0 instructions: 20000000 cycles: 9757528 heartbeat IPC: 2.051 cumulative IPC: 2.05 (Simulation time: 00 hr 01 min 45 sec)
Warmup finished CPU 0 instructions: 20000000 cycles: 9757528 cumulative IPC: 2.05 (Simulation time: 00 hr 01 min 45 sec)
Warmup complete CPU 0 instructions: 20000000 cycles: 9757528 cumulative IPC: 2.05 (Simulation time: 00 hr 01 min 45 sec)
Heartbeat CPU 0 instructions: 30000003 cycles: 18408988 heartbeat IPC: 1.156 cumulative IPC: 1.156 (Simulation time: 00 hr 03 min 03 sec)
Heartbeat CPU 0 instructions: 40000003 cycles: 27071872 heartbeat IPC: 1.154 cumulative IPC: 1.155 (Simulation time: 00 hr 04 min 21 sec)
Heartbeat CPU 0 instructions: 50000003 cycles: 35737343 heartbeat IPC: 1.154 cumulative IPC: 1.155 (Simulation time: 00 hr 05 min 39 sec)
Heartbeat CPU 0 instructions: 60000005 cycles: 44403297 heartbeat IPC: 1.154 cumulative IPC: 1.155 (Simulation time: 00 hr 06 min 55 sec)
Simulation finished CPU 0 instructions: 50000000 cycles: 43313993 cumulative IPC: 1.154 (Simulation time: 00 hr 08 min 09 sec)
Simulation complete CPU 0 instructions: 50000000 cycles: 43313993 cumulative IPC: 1.154 (Simulation time: 00 hr 08 min 09 sec)

ChampSim completed all CPUs

=== Simulation ===
CPU 0 runs traces/603.bwaves_s-1740B.champsimtrace.xz

Region of Interest Statistics

CPU 0 cumulative IPC: 1.154 instructions: 50000000 cycles: 43313993
CPU 0 Branch Prediction Accuracy: 99.97% MPKI: 0.00734 Average ROB Occupancy at Mispredict: 102.9
Branch type MPKI
BRANCH_DIRECT_JUMP: 0
BRANCH_INDIRECT: 0
BRANCH_CONDITIONAL: 0.00734
BRANCH_DIRECT_CALL: 0
BRANCH_INDIRECT_CALL: 0
BRANCH_RETURN: 0

cpu0->cpu0_STLB TOTAL        ACCESS:       7425 HIT:        365 MISS:       7060 MSHR_MERGE:          0
cpu0->cpu0_STLB LOAD         ACCESS:       7425 HIT:        365 MISS:       7060 MSHR_MERGE:          0
cpu0->cpu0_STLB RFO          ACCESS:          0 HIT:          0 MISS:          0 MSHR_MERGE:          0
cpu0->cpu0_STLB PREFETCH     ACCESS:          0 HIT:          0 MISS:          0 MSHR_MERGE:          0
cpu0->cpu0_STLB WRITE        ACCESS:          0 HIT:          0 MISS:          0 MSHR_MERGE:          0
cpu0->cpu0_STLB TRANSLATION  ACCESS:          0 HIT:          0 MISS:          0 MSHR_MERGE:          0
cpu0->cpu0_STLB PREFETCH REQUESTED:          0 ISSUED:          0 USEFUL:          0 USELESS:          0
cpu0->cpu0_STLB AVERAGE MISS LATENCY: 691.9 cycles
cpu0->cpu0_L2C TOTAL        ACCESS:    3112314 HIT:    1834300 MISS:    1278014 MSHR_MERGE:     309573
cpu0->cpu0_L2C LOAD         ACCESS:    1018804 HIT:     877247 MISS:     141557 MSHR_MERGE:     122140
cpu0->cpu0_L2C RFO          ACCESS:      32705 HIT:       8343 MISS:      24362 MSHR_MERGE:          0
cpu0->cpu0_L2C PREFETCH     ACCESS:    2010890 HIT:     909312 MISS:    1101578 MSHR_MERGE:     187433
cpu0->cpu0_L2C WRITE        ACCESS:      36330 HIT:      36297 MISS:         33 MSHR_MERGE:          0
cpu0->cpu0_L2C TRANSLATION  ACCESS:      13585 HIT:       3101 MISS:      10484 MSHR_MERGE:          0
cpu0->cpu0_L2C PREFETCH REQUESTED:    2042807 ISSUED:    2010880 USEFUL:     913875 USELESS:        274
cpu0->cpu0_L2C AVERAGE MISS LATENCY: 135.2 cycles
cpu0->cpu0_L1I TOTAL        ACCESS:   13966768 HIT:   13966768 MISS:          0 MSHR_MERGE:          0
cpu0->cpu0_L1I LOAD         ACCESS:   13966768 HIT:   13966768 MISS:          0 MSHR_MERGE:          0
cpu0->cpu0_L1I RFO          ACCESS:          0 HIT:          0 MISS:          0 MSHR_MERGE:          0
cpu0->cpu0_L1I PREFETCH     ACCESS:          0 HIT:          0 MISS:          0 MSHR_MERGE:          0
cpu0->cpu0_L1I WRITE        ACCESS:          0 HIT:          0 MISS:          0 MSHR_MERGE:          0
cpu0->cpu0_L1I TRANSLATION  ACCESS:          0 HIT:          0 MISS:          0 MSHR_MERGE:          0
cpu0->cpu0_L1I PREFETCH REQUESTED:          0 ISSUED:          0 USEFUL:          0 USELESS:          0
cpu0->cpu0_L1I AVERAGE MISS LATENCY: - cycles
cpu0->cpu0_L1D TOTAL        ACCESS:   17292872 HIT:   16155898 MISS:    1136974 MSHR_MERGE:      71765
cpu0->cpu0_L1D LOAD         ACCESS:   14462118 HIT:   13394243 MISS:    1067875 MSHR_MERGE:      48994
cpu0->cpu0_L1D RFO          ACCESS:          0 HIT:          0 MISS:          0 MSHR_MERGE:          0
cpu0->cpu0_L1D PREFETCH     ACCESS:          0 HIT:          0 MISS:          0 MSHR_MERGE:          0
cpu0->cpu0_L1D WRITE        ACCESS:    2816699 HIT:    2761365 MISS:      55334 MSHR_MERGE:      22591
cpu0->cpu0_L1D TRANSLATION  ACCESS:      14055 HIT:        290 MISS:      13765 MSHR_MERGE:        180
cpu0->cpu0_L1D PREFETCH REQUESTED:          0 ISSUED:          0 USEFUL:          0 USELESS:          0
cpu0->cpu0_L1D AVERAGE MISS LATENCY: 38.12 cycles
cpu0->cpu0_ITLB TOTAL        ACCESS:   12989257 HIT:   12989257 MISS:          0 MSHR_MERGE:          0
cpu0->cpu0_ITLB LOAD         ACCESS:   12989257 HIT:   12989257 MISS:          0 MSHR_MERGE:          0
cpu0->cpu0_ITLB RFO          ACCESS:          0 HIT:          0 MISS:          0 MSHR_MERGE:          0
cpu0->cpu0_ITLB PREFETCH     ACCESS:          0 HIT:          0 MISS:          0 MSHR_MERGE:          0
cpu0->cpu0_ITLB WRITE        ACCESS:          0 HIT:          0 MISS:          0 MSHR_MERGE:          0
cpu0->cpu0_ITLB TRANSLATION  ACCESS:          0 HIT:          0 MISS:          0 MSHR_MERGE:          0
cpu0->cpu0_ITLB PREFETCH REQUESTED:          0 ISSUED:          0 USEFUL:          0 USELESS:          0
cpu0->cpu0_ITLB AVERAGE MISS LATENCY: - cycles
cpu0->cpu0_DTLB TOTAL        ACCESS:   16657182 HIT:   16644507 MISS:      12675 MSHR_MERGE:       5250
cpu0->cpu0_DTLB LOAD         ACCESS:   16657182 HIT:   16644507 MISS:      12675 MSHR_MERGE:       5250
cpu0->cpu0_DTLB RFO          ACCESS:          0 HIT:          0 MISS:          0 MSHR_MERGE:          0
cpu0->cpu0_DTLB PREFETCH     ACCESS:          0 HIT:          0 MISS:          0 MSHR_MERGE:          0
cpu0->cpu0_DTLB WRITE        ACCESS:          0 HIT:          0 MISS:          0 MSHR_MERGE:          0
cpu0->cpu0_DTLB TRANSLATION  ACCESS:          0 HIT:          0 MISS:          0 MSHR_MERGE:          0
cpu0->cpu0_DTLB PREFETCH REQUESTED:          0 ISSUED:          0 USEFUL:          0 USELESS:          0
cpu0->cpu0_DTLB AVERAGE MISS LATENCY: 662.9 cycles
cpu0->LLC TOTAL        ACCESS:     992942 HIT:       4763 MISS:     988179 MSHR_MERGE:          0
cpu0->LLC LOAD         ACCESS:      19417 HIT:        259 MISS:      19158 MSHR_MERGE:          0
cpu0->LLC RFO          ACCESS:      24362 HIT:          0 MISS:      24362 MSHR_MERGE:          0
cpu0->LLC PREFETCH     ACCESS:     914145 HIT:       1851 MISS:     912294 MSHR_MERGE:          0
cpu0->LLC WRITE        ACCESS:      24534 HIT:       2645 MISS:      21889 MSHR_MERGE:          0
cpu0->LLC TRANSLATION  ACCESS:      10484 HIT:          8 MISS:      10476 MSHR_MERGE:          0
cpu0->LLC PREFETCH REQUESTED:          0 ISSUED:          0 USEFUL:          0 USELESS:          0
cpu0->LLC AVERAGE MISS LATENCY: 122.6 cycles

DRAM Statistics

Channel 0 RQ ROW_BUFFER_HIT:        696
  ROW_BUFFER_MISS:     965594
  AVG DBUS CONGESTED CYCLE: 4.076
Channel 0 WQ ROW_BUFFER_HIT:       2166
  ROW_BUFFER_MISS:      22194
  FULL:          0
Channel 0 REFRESHES ISSUED:       3609
