[VMEM] WARNING: physical memory size is smaller than virtual memory size.
WARNING: option --warmup_instructions is deprecated. Use --warmup-instructions instead.
WARNING: option --simulation_instructions is deprecated. Use --simulation-instructions instead.

*** ChampSim Multicore Out-of-Order Simulator ***
Warmup Instructions: 20000000
Simulation Instructions: 50000000
Number of CPUs: 1
Page size: 8192

Off-chip DRAM Size: 16 GiB Channels: 1 Width: 64-bit Data Rate: 3205 MT/s
Heartbeat CPU 0 instructions: 10000001 cycles: 2974890 heartbeat IPC: 3.361 cumulative IPC: 3.361 (Simulation time: 00 hr 00 min 41 sec)
Warmup finished CPU 0 instructions: 20000000 cycles: 5938320 cumulative IPC: 3.368 (Simulation time: 00 hr 01 min 23 sec)
Warmup complete CPU 0 instructions: 20000000 cycles: 5938320 cumulative IPC: 3.368 (Simulation time: 00 hr 01 min 23 sec)
Heartbeat CPU 0 instructions: 20000004 cycles: 5938321 heartbeat IPC: 3.374 cumulative IPC: 4 (Simulation time: 00 hr 01 min 23 sec)
Heartbeat CPU 0 instructions: 30000006 cycles: 17784178 heartbeat IPC: 0.8442 cumulative IPC: 0.8442 (Simulation time: 00 hr 03 min 35 sec)
Heartbeat CPU 0 instructions: 40000009 cycles: 29566426 heartbeat IPC: 0.8487 cumulative IPC: 0.8464 (Simulation time: 00 hr 05 min 44 sec)
Heartbeat CPU 0 instructions: 50000009 cycles: 41441962 heartbeat IPC: 0.8421 cumulative IPC: 0.845 (Simulation time: 00 hr 07 min 53 sec)
Heartbeat CPU 0 instructions: 60000010 cycles: 53323389 heartbeat IPC: 0.8416 cumulative IPC: 0.8441 (Simulation time: 00 hr 10 min 00 sec)
Simulation finished CPU 0 instructions: 50000002 cycles: 59333210 cumulative IPC: 0.8427 (Simulation time: 00 hr 12 min 01 sec)
Simulation complete CPU 0 instructions: 50000002 cycles: 59333210 cumulative IPC: 0.8427 (Simulation time: 00 hr 12 min 01 sec)

ChampSim completed all CPUs

=== Simulation ===
CPU 0 runs traces/470.lbm-1274B.champsimtrace.xz

Region of Interest Statistics

CPU 0 cumulative IPC: 0.8427 instructions: 50000002 cycles: 59333210
CPU 0 Branch Prediction Accuracy: 99.79% MPKI: 0.02864 Average ROB Occupancy at Mispredict: 179.4
Branch type MPKI
BRANCH_DIRECT_JUMP: 0
BRANCH_INDIRECT: 0
BRANCH_CONDITIONAL: 0.02864
BRANCH_DIRECT_CALL: 0
BRANCH_INDIRECT_CALL: 0
BRANCH_RETURN: 0

cpu0->cpu0_STLB TOTAL        ACCESS:      11115 HIT:       5557 MISS:       5558 MSHR_MERGE:          0
cpu0->cpu0_STLB LOAD         ACCESS:      11115 HIT:       5557 MISS:       5558 MSHR_MERGE:          0
cpu0->cpu0_STLB RFO          ACCESS:          0 HIT:          0 MISS:          0 MSHR_MERGE:          0
cpu0->cpu0_STLB PREFETCH     ACCESS:          0 HIT:          0 MISS:          0 MSHR_MERGE:          0
cpu0->cpu0_STLB WRITE        ACCESS:          0 HIT:          0 MISS:          0 MSHR_MERGE:          0
cpu0->cpu0_STLB TRANSLATION  ACCESS:          0 HIT:          0 MISS:          0 MSHR_MERGE:          0
cpu0->cpu0_STLB PREFETCH REQUESTED:          0 ISSUED:          0 USEFUL:          0 USELESS:          0
cpu0->cpu0_STLB AVERAGE MISS LATENCY: 1181 cycles
cpu0->cpu0_L2C TOTAL        ACCESS:    4878673 HIT:    3354755 MISS:    1523918 MSHR_MERGE:      81166
cpu0->cpu0_L2C LOAD         ACCESS:     355739 HIT:     241851 MISS:     113888 MSHR_MERGE:      43197
cpu0->cpu0_L2C RFO          ACCESS:    1994523 HIT:     916429 MISS:    1078094 MSHR_MERGE:          0
cpu0->cpu0_L2C PREFETCH     ACCESS:     522703 HIT:     199665 MISS:     323038 MSHR_MERGE:      37969
cpu0->cpu0_L2C WRITE        ACCESS:    1994580 HIT:    1994366 MISS:        214 MSHR_MERGE:          0
cpu0->cpu0_L2C TRANSLATION  ACCESS:      11128 HIT:       2444 MISS:       8684 MSHR_MERGE:          0
cpu0->cpu0_L2C PREFETCH REQUESTED:     522703 ISSUED:     522703 USEFUL:     285039 USELESS:         39
cpu0->cpu0_L2C AVERAGE MISS LATENCY: 460.4 cycles
cpu0->cpu0_L1I TOTAL        ACCESS:    8714280 HIT:    8714280 MISS:          0 MSHR_MERGE:          0
cpu0->cpu0_L1I LOAD         ACCESS:    8714280 HIT:    8714280 MISS:          0 MSHR_MERGE:          0
cpu0->cpu0_L1I RFO          ACCESS:          0 HIT:          0 MISS:          0 MSHR_MERGE:          0
cpu0->cpu0_L1I PREFETCH     ACCESS:          0 HIT:          0 MISS:          0 MSHR_MERGE:          0
cpu0->cpu0_L1I WRITE        ACCESS:          0 HIT:          0 MISS:          0 MSHR_MERGE:          0
cpu0->cpu0_L1I TRANSLATION  ACCESS:          0 HIT:          0 MISS:          0 MSHR_MERGE:          0
cpu0->cpu0_L1I PREFETCH REQUESTED:          0 ISSUED:          0 USEFUL:          0 USELESS:          0
cpu0->cpu0_L1I AVERAGE MISS LATENCY: - cycles
cpu0->cpu0_L1D TOTAL        ACCESS:    7396916 HIT:    4932193 MISS:    2464723 MSHR_MERGE:     103287
cpu0->cpu0_L1D LOAD         ACCESS:    2362269 HIT:    1943046 MISS:     419223 MSHR_MERGE:      63481
cpu0->cpu0_L1D RFO          ACCESS:          0 HIT:          0 MISS:          0 MSHR_MERGE:          0
cpu0->cpu0_L1D PREFETCH     ACCESS:          0 HIT:          0 MISS:          0 MSHR_MERGE:          0
cpu0->cpu0_L1D WRITE        ACCESS:    5023519 HIT:    2989147 MISS:    2034372 MSHR_MERGE:      39806
cpu0->cpu0_L1D TRANSLATION  ACCESS:      11128 HIT:          0 MISS:      11128 MSHR_MERGE:          0
cpu0->cpu0_L1D PREFETCH REQUESTED:          0 ISSUED:          0 USEFUL:          0 USELESS:          0
cpu0->cpu0_L1D AVERAGE MISS LATENCY: 262.4 cycles
cpu0->cpu0_ITLB TOTAL        ACCESS:    6978771 HIT:    6978771 MISS:          0 MSHR_MERGE:          0
cpu0->cpu0_ITLB LOAD         ACCESS:    6978771 HIT:    6978771 MISS:          0 MSHR_MERGE:          0
cpu0->cpu0_ITLB RFO          ACCESS:          0 HIT:          0 MISS:          0 MSHR_MERGE:          0
cpu0->cpu0_ITLB PREFETCH     ACCESS:          0 HIT:          0 MISS:          0 MSHR_MERGE:          0
cpu0->cpu0_ITLB WRITE        ACCESS:          0 HIT:          0 MISS:          0 MSHR_MERGE:          0
cpu0->cpu0_ITLB TRANSLATION  ACCESS:          0 HIT:          0 MISS:          0 MSHR_MERGE:          0
cpu0->cpu0_ITLB PREFETCH REQUESTED:          0 ISSUED:          0 USEFUL:          0 USELESS:          0
cpu0->cpu0_ITLB AVERAGE MISS LATENCY: - cycles
cpu0->cpu0_DTLB TOTAL        ACCESS:    6893164 HIT:    6868316 MISS:      24848 MSHR_MERGE:      13733
cpu0->cpu0_DTLB LOAD         ACCESS:    6893164 HIT:    6868316 MISS:      24848 MSHR_MERGE:      13733
cpu0->cpu0_DTLB RFO          ACCESS:          0 HIT:          0 MISS:          0 MSHR_MERGE:          0
cpu0->cpu0_DTLB PREFETCH     ACCESS:          0 HIT:          0 MISS:          0 MSHR_MERGE:          0
cpu0->cpu0_DTLB WRITE        ACCESS:          0 HIT:          0 MISS:          0 MSHR_MERGE:          0
cpu0->cpu0_DTLB TRANSLATION  ACCESS:          0 HIT:          0 MISS:          0 MSHR_MERGE:          0
cpu0->cpu0_DTLB PREFETCH REQUESTED:          0 ISSUED:          0 USEFUL:          0 USELESS:          0
cpu0->cpu0_DTLB AVERAGE MISS LATENCY: 595.1 cycles
cpu0->LLC TOTAL        ACCESS:    2520998 HIT:      72381 MISS:    2448617 MSHR_MERGE:          0
cpu0->LLC LOAD         ACCESS:      70691 HIT:          0 MISS:      70691 MSHR_MERGE:          0
cpu0->LLC RFO          ACCESS:    1078093 HIT:      21745 MISS:    1056348 MSHR_MERGE:          0
cpu0->LLC PREFETCH     ACCESS:     285069 HIT:          0 MISS:     285069 MSHR_MERGE:          0
cpu0->LLC WRITE        ACCESS:    1078461 HIT:      50636 MISS:    1027825 MSHR_MERGE:          0
cpu0->LLC TRANSLATION  ACCESS:       8684 HIT:          0 MISS:       8684 MSHR_MERGE:          0
cpu0->LLC PREFETCH REQUESTED:          0 ISSUED:          0 USEFUL:          0 USELESS:          0
cpu0->LLC AVERAGE MISS LATENCY: 245 cycles

DRAM Statistics

Channel 0 RQ ROW_BUFFER_HIT:      36101
  ROW_BUFFER_MISS:    1384533
  AVG DBUS CONGESTED CYCLE: 11.83
Channel 0 WQ ROW_BUFFER_HIT:     153084
  ROW_BUFFER_MISS:     898721
  FULL:          0
Channel 0 REFRESHES ISSUED:       4945
