[VMEM] WARNING: physical memory size is smaller than virtual memory size.
WARNING: option --warmup_instructions is deprecated. Use --warmup-instructions instead.
WARNING: option --simulation_instructions is deprecated. Use --simulation-instructions instead.

*** ChampSim Multicore Out-of-Order Simulator ***
Warmup Instructions: 20000000
Simulation Instructions: 50000000
Number of CPUs: 1
Page size: 8192

Off-chip DRAM Size: 16 GiB Channels: 1 Width: 64-bit Data Rate: 3205 MT/s
Heartbeat CPU 0 instructions: 10000000 cycles: 8323630 heartbeat IPC: 1.201 cumulative IPC: 1.201 (Simulation time: 00 hr 01 min 21 sec)
Heartbeat CPU 0 instructions: 20000000 cycles: 15438249 heartbeat IPC: 1.406 cumulative IPC: 1.295 (Simulation time: 00 hr 02 min 32 sec)
Warmup finished CPU 0 instructions: 20000000 cycles: 15438249 cumulative IPC: 1.295 (Simulation time: 00 hr 02 min 32 sec)
Warmup complete CPU 0 instructions: 20000000 cycles: 15438249 cumulative IPC: 1.295 (Simulation time: 00 hr 02 min 32 sec)
Heartbeat CPU 0 instructions: 30000002 cycles: 43653047 heartbeat IPC: 0.3544 cumulative IPC: 0.3544 (Simulation time: 00 hr 05 min 16 sec)
Heartbeat CPU 0 instructions: 40000004 cycles: 72080013 heartbeat IPC: 0.3518 cumulative IPC: 0.3531 (Simulation time: 00 hr 08 min 06 sec)
Heartbeat CPU 0 instructions: 50000004 cycles: 100502525 heartbeat IPC: 0.3518 cumulative IPC: 0.3527 (Simulation time: 00 hr 10 min 44 sec)
Heartbeat CPU 0 instructions: 60000007 cycles: 127413671 heartbeat IPC: 0.3716 cumulative IPC: 0.3572 (Simulation time: 00 hr 13 min 01 sec)
Simulation finished CPU 0 instructions: 50000000 cycles: 138118686 cumulative IPC: 0.362 (Simulation time: 00 hr 15 min 15 sec)
Simulation complete CPU 0 instructions: 50000000 cycles: 138118686 cumulative IPC: 0.362 (Simulation time: 00 hr 15 min 15 sec)

ChampSim completed all CPUs

=== Simulation ===
CPU 0 runs traces/620.omnetpp_s-874B.champsimtrace.xz

Region of Interest Statistics

CPU 0 cumulative IPC: 0.362 instructions: 50000000 cycles: 138118686
CPU 0 Branch Prediction Accuracy: 96.16% MPKI: 7.99 Average ROB Occupancy at Mispredict: 51.76
Branch type MPKI
BRANCH_DIRECT_JUMP: 0.9384
BRANCH_INDIRECT: 0.1208
BRANCH_CONDITIONAL: 5.805
BRANCH_DIRECT_CALL: 0.00236
BRANCH_INDIRECT_CALL: 0.7298
BRANCH_RETURN: 0.3936

cpu0->cpu0_STLB TOTAL        ACCESS:     827831 HIT:     690736 MISS:     137095 MSHR_MERGE:          0
cpu0->cpu0_STLB LOAD         ACCESS:     827831 HIT:     690736 MISS:     137095 MSHR_MERGE:          0
cpu0->cpu0_STLB RFO          ACCESS:          0 HIT:          0 MISS:          0 MSHR_MERGE:          0
cpu0->cpu0_STLB PREFETCH     ACCESS:          0 HIT:          0 MISS:          0 MSHR_MERGE:          0
cpu0->cpu0_STLB WRITE        ACCESS:          0 HIT:          0 MISS:          0 MSHR_MERGE:          0
cpu0->cpu0_STLB TRANSLATION  ACCESS:          0 HIT:          0 MISS:          0 MSHR_MERGE:          0
cpu0->cpu0_STLB PREFETCH REQUESTED:          0 ISSUED:          0 USEFUL:          0 USELESS:          0
cpu0->cpu0_STLB AVERAGE MISS LATENCY: 334.8 cycles
cpu0->cpu0_L2C TOTAL        ACCESS:    2800497 HIT:    1243274 MISS:    1557223 MSHR_MERGE:     112044
cpu0->cpu0_L2C LOAD         ACCESS:     933778 HIT:     359846 MISS:     573932 MSHR_MERGE:      21789
cpu0->cpu0_L2C RFO          ACCESS:     138291 HIT:      59966 MISS:      78325 MSHR_MERGE:       2377
cpu0->cpu0_L2C PREFETCH     ACCESS:     927231 HIT:     299498 MISS:     627733 MSHR_MERGE:      87878
cpu0->cpu0_L2C WRITE        ACCESS:     507923 HIT:     505193 MISS:       2730 MSHR_MERGE:          0
cpu0->cpu0_L2C TRANSLATION  ACCESS:     293274 HIT:      18771 MISS:     274503 MSHR_MERGE:          0
cpu0->cpu0_L2C PREFETCH REQUESTED:     927231 ISSUED:     927231 USEFUL:     167790 USELESS:     372034
cpu0->cpu0_L2C AVERAGE MISS LATENCY: 138.2 cycles
cpu0->cpu0_L1I TOTAL        ACCESS:    8248238 HIT:    8222866 MISS:      25372 MSHR_MERGE:       6903
cpu0->cpu0_L1I LOAD         ACCESS:    8248238 HIT:    8222866 MISS:      25372 MSHR_MERGE:       6903
cpu0->cpu0_L1I RFO          ACCESS:          0 HIT:          0 MISS:          0 MSHR_MERGE:          0
cpu0->cpu0_L1I PREFETCH     ACCESS:          0 HIT:          0 MISS:          0 MSHR_MERGE:          0
cpu0->cpu0_L1I WRITE        ACCESS:          0 HIT:          0 MISS:          0 MSHR_MERGE:          0
cpu0->cpu0_L1I TRANSLATION  ACCESS:          0 HIT:          0 MISS:          0 MSHR_MERGE:          0
cpu0->cpu0_L1I PREFETCH REQUESTED:          0 ISSUED:          0 USEFUL:          0 USELESS:          0
cpu0->cpu0_L1I AVERAGE MISS LATENCY: 24.64 cycles
cpu0->cpu0_L1D TOTAL        ACCESS:   18841331 HIT:   17096360 MISS:    1744971 MSHR_MERGE:     398088
cpu0->cpu0_L1D LOAD         ACCESS:    9492406 HIT:    8387369 MISS:    1105037 MSHR_MERGE:     189724
cpu0->cpu0_L1D RFO          ACCESS:          0 HIT:          0 MISS:          0 MSHR_MERGE:          0
cpu0->cpu0_L1D PREFETCH     ACCESS:          0 HIT:          0 MISS:          0 MSHR_MERGE:          0
cpu0->cpu0_L1D WRITE        ACCESS:    9047661 HIT:    8701326 MISS:     346335 MSHR_MERGE:     208039
cpu0->cpu0_L1D TRANSLATION  ACCESS:     301264 HIT:       7665 MISS:     293599 MSHR_MERGE:        325
cpu0->cpu0_L1D PREFETCH REQUESTED:          0 ISSUED:          0 USEFUL:          0 USELESS:          0
cpu0->cpu0_L1D AVERAGE MISS LATENCY: 103.8 cycles
cpu0->cpu0_ITLB TOTAL        ACCESS:    7598242 HIT:    7598038 MISS:        204 MSHR_MERGE:        100
cpu0->cpu0_ITLB LOAD         ACCESS:    7598242 HIT:    7598038 MISS:        204 MSHR_MERGE:        100
cpu0->cpu0_ITLB RFO          ACCESS:          0 HIT:          0 MISS:          0 MSHR_MERGE:          0
cpu0->cpu0_ITLB PREFETCH     ACCESS:          0 HIT:          0 MISS:          0 MSHR_MERGE:          0
cpu0->cpu0_ITLB WRITE        ACCESS:          0 HIT:          0 MISS:          0 MSHR_MERGE:          0
cpu0->cpu0_ITLB TRANSLATION  ACCESS:          0 HIT:          0 MISS:          0 MSHR_MERGE:          0
cpu0->cpu0_ITLB PREFETCH REQUESTED:          0 ISSUED:          0 USEFUL:          0 USELESS:          0
cpu0->cpu0_ITLB AVERAGE MISS LATENCY: 197.6 cycles
cpu0->cpu0_DTLB TOTAL        ACCESS:   17261682 HIT:   16316681 MISS:     945001 MSHR_MERGE:     117274
cpu0->cpu0_DTLB LOAD         ACCESS:   17261682 HIT:   16316681 MISS:     945001 MSHR_MERGE:     117274
cpu0->cpu0_DTLB RFO          ACCESS:          0 HIT:          0 MISS:          0 MSHR_MERGE:          0
cpu0->cpu0_DTLB PREFETCH     ACCESS:          0 HIT:          0 MISS:          0 MSHR_MERGE:          0
cpu0->cpu0_DTLB WRITE        ACCESS:          0 HIT:          0 MISS:          0 MSHR_MERGE:          0
cpu0->cpu0_DTLB TRANSLATION  ACCESS:          0 HIT:          0 MISS:          0 MSHR_MERGE:          0
cpu0->cpu0_DTLB PREFETCH REQUESTED:          0 ISSUED:          0 USEFUL:          0 USELESS:          0
cpu0->cpu0_DTLB AVERAGE MISS LATENCY: 59.59 cycles
cpu0->LLC TOTAL        ACCESS:    1838821 HIT:     443068 MISS:    1395753 MSHR_MERGE:          0
cpu0->LLC LOAD         ACCESS:     552143 HIT:     125331 MISS:     426812 MSHR_MERGE:          0
cpu0->LLC RFO          ACCESS:      75948 HIT:      13230 MISS:      62718 MSHR_MERGE:          0
cpu0->LLC PREFETCH     ACCESS:     539855 HIT:     109677 MISS:     430178 MSHR_MERGE:          0
cpu0->LLC WRITE        ACCESS:     396372 HIT:     141159 MISS:     255213 MSHR_MERGE:          0
cpu0->LLC TRANSLATION  ACCESS:     274503 HIT:      53671 MISS:     220832 MSHR_MERGE:          0
cpu0->LLC PREFETCH REQUESTED:          0 ISSUED:          0 USEFUL:          0 USELESS:          0
cpu0->LLC AVERAGE MISS LATENCY: 116.4 cycles

DRAM Statistics

Channel 0 RQ ROW_BUFFER_HIT:      21304
  ROW_BUFFER_MISS:    1119165
  AVG DBUS CONGESTED CYCLE: 21.28
Channel 0 WQ ROW_BUFFER_HIT:      80427
  ROW_BUFFER_MISS:     206827
  FULL:          0
Channel 0 REFRESHES ISSUED:      11510
