[VMEM] WARNING: physical memory size is smaller than virtual memory size.
WARNING: option --warmup_instructions is deprecated. Use --warmup-instructions instead.
WARNING: option --simulation_instructions is deprecated. Use --simulation-instructions instead.

*** ChampSim Multicore Out-of-Order Simulator ***
Warmup Instructions: 20000000
Simulation Instructions: 50000000
Number of CPUs: 1
Page size: 8192

Off-chip DRAM Size: 16 GiB Channels: 1 Width: 64-bit Data Rate: 3205 MT/s
Heartbeat CPU 0 instructions: 10000002 cycles: 6988530 heartbeat IPC: 1.431 cumulative IPC: 1.431 (Simulation time: 00 hr 01 min 14 sec)
Warmup finished CPU 0 instructions: 20000001 cycles: 11064508 cumulative IPC: 1.808 (Simulation time: 00 hr 02 min 07 sec)
Warmup complete CPU 0 instructions: 20000001 cycles: 11064508 cumulative IPC: 1.808 (Simulation time: 00 hr 02 min 07 sec)
Heartbeat CPU 0 instructions: 20000005 cycles: 11064509 heartbeat IPC: 2.453 cumulative IPC: 4 (Simulation time: 00 hr 02 min 07 sec)
Heartbeat CPU 0 instructions: 30000006 cycles: 45173569 heartbeat IPC: 0.2932 cumulative IPC: 0.2932 (Simulation time: 00 hr 05 min 04 sec)
Heartbeat CPU 0 instructions: 40000009 cycles: 79283540 heartbeat IPC: 0.2932 cumulative IPC: 0.2932 (Simulation time: 00 hr 08 min 05 sec)
Heartbeat CPU 0 instructions: 50000009 cycles: 113688838 heartbeat IPC: 0.2907 cumulative IPC: 0.2923 (Simulation time: 00 hr 11 min 13 sec)
Heartbeat CPU 0 instructions: 60000011 cycles: 147687797 heartbeat IPC: 0.2941 cumulative IPC: 0.2928 (Simulation time: 00 hr 14 min 12 sec)
Simulation finished CPU 0 instructions: 50000000 cycles: 171035603 cumulative IPC: 0.2923 (Simulation time: 00 hr 17 min 11 sec)
Simulation complete CPU 0 instructions: 50000000 cycles: 171035603 cumulative IPC: 0.2923 (Simulation time: 00 hr 17 min 11 sec)

ChampSim completed all CPUs

=== Simulation ===
CPU 0 runs traces/473.astar-359B.champsimtrace.xz

Region of Interest Statistics

CPU 0 cumulative IPC: 0.2923 instructions: 50000000 cycles: 171035603
CPU 0 Branch Prediction Accuracy: 93.2% MPKI: 13.43 Average ROB Occupancy at Mispredict: 44.39
Branch type MPKI
BRANCH_DIRECT_JUMP: 0
BRANCH_INDIRECT: 0
BRANCH_CONDITIONAL: 13.42
BRANCH_DIRECT_CALL: 0
BRANCH_INDIRECT_CALL: 0.00054
BRANCH_RETURN: 0

cpu0->cpu0_STLB TOTAL        ACCESS:    1275536 HIT:     889268 MISS:     386268 MSHR_MERGE:          0
cpu0->cpu0_STLB LOAD         ACCESS:    1275536 HIT:     889268 MISS:     386268 MSHR_MERGE:          0
cpu0->cpu0_STLB RFO          ACCESS:          0 HIT:          0 MISS:          0 MSHR_MERGE:          0
cpu0->cpu0_STLB PREFETCH     ACCESS:          0 HIT:          0 MISS:          0 MSHR_MERGE:          0
cpu0->cpu0_STLB WRITE        ACCESS:          0 HIT:          0 MISS:          0 MSHR_MERGE:          0
cpu0->cpu0_STLB TRANSLATION  ACCESS:          0 HIT:          0 MISS:          0 MSHR_MERGE:          0
cpu0->cpu0_STLB PREFETCH REQUESTED:          0 ISSUED:          0 USEFUL:          0 USELESS:          0
cpu0->cpu0_STLB AVERAGE MISS LATENCY: 385.2 cycles
cpu0->cpu0_L2C TOTAL        ACCESS:    6334951 HIT:    2896165 MISS:    3438786 MSHR_MERGE:      85781
cpu0->cpu0_L2C LOAD         ACCESS:    1775442 HIT:     937456 MISS:     837986 MSHR_MERGE:      17329
cpu0->cpu0_L2C RFO          ACCESS:     767634 HIT:      40730 MISS:     726904 MSHR_MERGE:          0
cpu0->cpu0_L2C PREFETCH     ACCESS:    1973103 HIT:     743892 MISS:    1229211 MSHR_MERGE:      68452
cpu0->cpu0_L2C WRITE        ACCESS:    1168862 HIT:    1168382 MISS:        480 MSHR_MERGE:          0
cpu0->cpu0_L2C TRANSLATION  ACCESS:     649910 HIT:       5705 MISS:     644205 MSHR_MERGE:          0
cpu0->cpu0_L2C PREFETCH REQUESTED:    1976187 ISSUED:    1973103 USEFUL:     314623 USELESS:     719886
cpu0->cpu0_L2C AVERAGE MISS LATENCY: 158.9 cycles
cpu0->cpu0_L1I TOTAL        ACCESS:     846421 HIT:     846414 MISS:          7 MSHR_MERGE:          0
cpu0->cpu0_L1I LOAD         ACCESS:     846421 HIT:     846414 MISS:          7 MSHR_MERGE:          0
cpu0->cpu0_L1I RFO          ACCESS:          0 HIT:          0 MISS:          0 MSHR_MERGE:          0
cpu0->cpu0_L1I PREFETCH     ACCESS:          0 HIT:          0 MISS:          0 MSHR_MERGE:          0
cpu0->cpu0_L1I WRITE        ACCESS:          0 HIT:          0 MISS:          0 MSHR_MERGE:          0
cpu0->cpu0_L1I TRANSLATION  ACCESS:          0 HIT:          0 MISS:          0 MSHR_MERGE:          0
cpu0->cpu0_L1I PREFETCH REQUESTED:          0 ISSUED:          0 USEFUL:          0 USELESS:          0
cpu0->cpu0_L1I AVERAGE MISS LATENCY: 82.71 cycles
cpu0->cpu0_L1D TOTAL        ACCESS:   19824915 HIT:   15978803 MISS:    3846112 MSHR_MERGE:     653130
cpu0->cpu0_L1D LOAD         ACCESS:   12733671 HIT:   10400228 MISS:    2333443 MSHR_MERGE:     558006
cpu0->cpu0_L1D RFO          ACCESS:          0 HIT:          0 MISS:          0 MSHR_MERGE:          0
cpu0->cpu0_L1D PREFETCH     ACCESS:          0 HIT:          0 MISS:          0 MSHR_MERGE:          0
cpu0->cpu0_L1D WRITE        ACCESS:    6314492 HIT:    5546769 MISS:     767723 MSHR_MERGE:         88
cpu0->cpu0_L1D TRANSLATION  ACCESS:     776752 HIT:      31806 MISS:     744946 MSHR_MERGE:      95036
cpu0->cpu0_L1D PREFETCH REQUESTED:          0 ISSUED:          0 USEFUL:          0 USELESS:          0
cpu0->cpu0_L1D AVERAGE MISS LATENCY: 119.1 cycles
cpu0->cpu0_ITLB TOTAL        ACCESS:     844114 HIT:     844114 MISS:          0 MSHR_MERGE:          0
cpu0->cpu0_ITLB LOAD         ACCESS:     844114 HIT:     844114 MISS:          0 MSHR_MERGE:          0
cpu0->cpu0_ITLB RFO          ACCESS:          0 HIT:          0 MISS:          0 MSHR_MERGE:          0
cpu0->cpu0_ITLB PREFETCH     ACCESS:          0 HIT:          0 MISS:          0 MSHR_MERGE:          0
cpu0->cpu0_ITLB WRITE        ACCESS:          0 HIT:          0 MISS:          0 MSHR_MERGE:          0
cpu0->cpu0_ITLB TRANSLATION  ACCESS:          0 HIT:          0 MISS:          0 MSHR_MERGE:          0
cpu0->cpu0_ITLB PREFETCH REQUESTED:          0 ISSUED:          0 USEFUL:          0 USELESS:          0
cpu0->cpu0_ITLB AVERAGE MISS LATENCY: - cycles
cpu0->cpu0_DTLB TOTAL        ACCESS:   18125543 HIT:   16239389 MISS:    1886154 MSHR_MERGE:     610618
cpu0->cpu0_DTLB LOAD         ACCESS:   18125543 HIT:   16239389 MISS:    1886154 MSHR_MERGE:     610618
cpu0->cpu0_DTLB RFO          ACCESS:          0 HIT:          0 MISS:          0 MSHR_MERGE:          0
cpu0->cpu0_DTLB PREFETCH     ACCESS:          0 HIT:          0 MISS:          0 MSHR_MERGE:          0
cpu0->cpu0_DTLB WRITE        ACCESS:          0 HIT:          0 MISS:          0 MSHR_MERGE:          0
cpu0->cpu0_DTLB TRANSLATION  ACCESS:          0 HIT:          0 MISS:          0 MSHR_MERGE:          0
cpu0->cpu0_DTLB PREFETCH REQUESTED:          0 ISSUED:          0 USEFUL:          0 USELESS:          0
cpu0->cpu0_DTLB AVERAGE MISS LATENCY: 121 cycles
cpu0->LLC TOTAL        ACCESS:    4482187 HIT:    1108043 MISS:    3374144 MSHR_MERGE:      21821
cpu0->LLC LOAD         ACCESS:     820655 HIT:     254888 MISS:     565767 MSHR_MERGE:       1692
cpu0->LLC RFO          ACCESS:     726903 HIT:     207016 MISS:     519887 MSHR_MERGE:          0
cpu0->LLC PREFETCH     ACCESS:    1160759 HIT:     188074 MISS:     972685 MSHR_MERGE:      20129
cpu0->LLC WRITE        ACCESS:    1129665 HIT:     392814 MISS:     736851 MSHR_MERGE:          0
cpu0->LLC TRANSLATION  ACCESS:     644205 HIT:      65251 MISS:     578954 MSHR_MERGE:          0
cpu0->LLC PREFETCH REQUESTED:          0 ISSUED:          0 USEFUL:          0 USELESS:          0
cpu0->LLC AVERAGE MISS LATENCY: 133.2 cycles

DRAM Statistics

Channel 0 RQ ROW_BUFFER_HIT:      45727
  ROW_BUFFER_MISS:    2569607
  AVG DBUS CONGESTED CYCLE: 7.845
Channel 0 WQ ROW_BUFFER_HIT:      66860
  ROW_BUFFER_MISS:     725673
  FULL:         15
Channel 0 REFRESHES ISSUED:      14253
