[VMEM] WARNING: physical memory size is smaller than virtual memory size.
WARNING: option --warmup_instructions is deprecated. Use --warmup-instructions instead.
WARNING: option --simulation_instructions is deprecated. Use --simulation-instructions instead.

*** ChampSim Multicore Out-of-Order Simulator ***
Warmup Instructions: 20000000
Simulation Instructions: 50000000
Number of CPUs: 1
Page size: 8192

Off-chip DRAM Size: 16 GiB Channels: 1 Width: 64-bit Data Rate: 3205 MT/s
Heartbeat CPU 0 instructions: 10000000 cycles: 8243135 heartbeat IPC: 1.213 cumulative IPC: 1.213 (Simulation time: 00 hr 01 min 19 sec)
Heartbeat CPU 0 instructions: 20000000 cycles: 15272671 heartbeat IPC: 1.423 cumulative IPC: 1.31 (Simulation time: 00 hr 02 min 29 sec)
Warmup finished CPU 0 instructions: 20000000 cycles: 15272671 cumulative IPC: 1.31 (Simulation time: 00 hr 02 min 29 sec)
Warmup complete CPU 0 instructions: 20000000 cycles: 15272671 cumulative IPC: 1.31 (Simulation time: 00 hr 02 min 29 sec)
Heartbeat CPU 0 instructions: 30000002 cycles: 36766455 heartbeat IPC: 0.4653 cumulative IPC: 0.4653 (Simulation time: 00 hr 04 min 38 sec)
Heartbeat CPU 0 instructions: 40000004 cycles: 58221073 heartbeat IPC: 0.4661 cumulative IPC: 0.4657 (Simulation time: 00 hr 06 min 45 sec)
Heartbeat CPU 0 instructions: 50000004 cycles: 79621051 heartbeat IPC: 0.4673 cumulative IPC: 0.4662 (Simulation time: 00 hr 08 min 52 sec)
Heartbeat CPU 0 instructions: 60000007 cycles: 99979156 heartbeat IPC: 0.4912 cumulative IPC: 0.4722 (Simulation time: 00 hr 10 min 56 sec)
Simulation finished CPU 0 instructions: 50000001 cycles: 104520758 cumulative IPC: 0.4784 (Simulation time: 00 hr 12 min 56 sec)
Simulation complete CPU 0 instructions: 50000001 cycles: 104520758 cumulative IPC: 0.4784 (Simulation time: 00 hr 12 min 56 sec)

ChampSim completed all CPUs

=== Simulation ===
CPU 0 runs traces/620.omnetpp_s-874B.champsimtrace.xz

Region of Interest Statistics

CPU 0 cumulative IPC: 0.4784 instructions: 50000001 cycles: 104520758
CPU 0 Branch Prediction Accuracy: 96.16% MPKI: 7.99 Average ROB Occupancy at Mispredict: 58.39
Branch type MPKI
BRANCH_DIRECT_JUMP: 0.9384
BRANCH_INDIRECT: 0.1208
BRANCH_CONDITIONAL: 5.805
BRANCH_DIRECT_CALL: 0.00236
BRANCH_INDIRECT_CALL: 0.7298
BRANCH_RETURN: 0.3936

cpu0->cpu0_STLB TOTAL        ACCESS:     827955 HIT:     690857 MISS:     137098 MSHR_MERGE:          0
cpu0->cpu0_STLB LOAD         ACCESS:     827955 HIT:     690857 MISS:     137098 MSHR_MERGE:          0
cpu0->cpu0_STLB RFO          ACCESS:          0 HIT:          0 MISS:          0 MSHR_MERGE:          0
cpu0->cpu0_STLB PREFETCH     ACCESS:          0 HIT:          0 MISS:          0 MSHR_MERGE:          0
cpu0->cpu0_STLB WRITE        ACCESS:          0 HIT:          0 MISS:          0 MSHR_MERGE:          0
cpu0->cpu0_STLB TRANSLATION  ACCESS:          0 HIT:          0 MISS:          0 MSHR_MERGE:          0
cpu0->cpu0_STLB PREFETCH REQUESTED:          0 ISSUED:          0 USEFUL:          0 USELESS:          0
cpu0->cpu0_STLB AVERAGE MISS LATENCY: 225.7 cycles
cpu0->cpu0_L2C TOTAL        ACCESS:    3517302 HIT:    1546566 MISS:    1970736 MSHR_MERGE:     216236
cpu0->cpu0_L2C LOAD         ACCESS:     933752 HIT:     378741 MISS:     555011 MSHR_MERGE:      25422
cpu0->cpu0_L2C RFO          ACCESS:     139231 HIT:      69759 MISS:      69472 MSHR_MERGE:       2046
cpu0->cpu0_L2C PREFETCH     ACCESS:    1641401 HIT:     576254 MISS:    1065147 MSHR_MERGE:     188768
cpu0->cpu0_L2C WRITE        ACCESS:     509568 HIT:     505713 MISS:       3855 MSHR_MERGE:          0
cpu0->cpu0_L2C TRANSLATION  ACCESS:     293350 HIT:      16099 MISS:     277251 MSHR_MERGE:          0
cpu0->cpu0_L2C PREFETCH REQUESTED:    1641721 ISSUED:    1641401 USEFUL:     216898 USELESS:     658424
cpu0->cpu0_L2C AVERAGE MISS LATENCY: 83.53 cycles
cpu0->cpu0_L1I TOTAL        ACCESS:    7869734 HIT:    7844329 MISS:      25405 MSHR_MERGE:       6945
cpu0->cpu0_L1I LOAD         ACCESS:    7869734 HIT:    7844329 MISS:      25405 MSHR_MERGE:       6945
cpu0->cpu0_L1I RFO          ACCESS:          0 HIT:          0 MISS:          0 MSHR_MERGE:          0
cpu0->cpu0_L1I PREFETCH     ACCESS:          0 HIT:          0 MISS:          0 MSHR_MERGE:          0
cpu0->cpu0_L1I WRITE        ACCESS:          0 HIT:          0 MISS:          0 MSHR_MERGE:          0
cpu0->cpu0_L1I TRANSLATION  ACCESS:          0 HIT:          0 MISS:          0 MSHR_MERGE:          0
cpu0->cpu0_L1I PREFETCH REQUESTED:          0 ISSUED:          0 USEFUL:          0 USELESS:          0
cpu0->cpu0_L1I AVERAGE MISS LATENCY: 23.4 cycles
cpu0->cpu0_L1D TOTAL        ACCESS:   18754319 HIT:   17045732 MISS:    1708587 MSHR_MERGE:     360700
cpu0->cpu0_L1D LOAD         ACCESS:    9416553 HIT:    8323266 MISS:    1093287 MSHR_MERGE:     177993
cpu0->cpu0_L1D RFO          ACCESS:          0 HIT:          0 MISS:          0 MSHR_MERGE:          0
cpu0->cpu0_L1D PREFETCH     ACCESS:          0 HIT:          0 MISS:          0 MSHR_MERGE:          0
cpu0->cpu0_L1D WRITE        ACCESS:    9036497 HIT:    8714862 MISS:     321635 MSHR_MERGE:     182392
cpu0->cpu0_L1D TRANSLATION  ACCESS:     301269 HIT:       7604 MISS:     293665 MSHR_MERGE:        315
cpu0->cpu0_L1D PREFETCH REQUESTED:          0 ISSUED:          0 USEFUL:          0 USELESS:          0
cpu0->cpu0_L1D AVERAGE MISS LATENCY: 64.57 cycles
cpu0->cpu0_ITLB TOTAL        ACCESS:    7206847 HIT:    7206642 MISS:        205 MSHR_MERGE:        101
cpu0->cpu0_ITLB LOAD         ACCESS:    7206847 HIT:    7206642 MISS:        205 MSHR_MERGE:        101
cpu0->cpu0_ITLB RFO          ACCESS:          0 HIT:          0 MISS:          0 MSHR_MERGE:          0
cpu0->cpu0_ITLB PREFETCH     ACCESS:          0 HIT:          0 MISS:          0 MSHR_MERGE:          0
cpu0->cpu0_ITLB WRITE        ACCESS:          0 HIT:          0 MISS:          0 MSHR_MERGE:          0
cpu0->cpu0_ITLB TRANSLATION  ACCESS:          0 HIT:          0 MISS:          0 MSHR_MERGE:          0
cpu0->cpu0_ITLB PREFETCH REQUESTED:          0 ISSUED:          0 USEFUL:          0 USELESS:          0
cpu0->cpu0_ITLB AVERAGE MISS LATENCY: 150.1 cycles
cpu0->cpu0_DTLB TOTAL        ACCESS:   17181416 HIT:   16236046 MISS:     945370 MSHR_MERGE:     117518
cpu0->cpu0_DTLB LOAD         ACCESS:   17181416 HIT:   16236046 MISS:     945370 MSHR_MERGE:     117518
cpu0->cpu0_DTLB RFO          ACCESS:          0 HIT:          0 MISS:          0 MSHR_MERGE:          0
cpu0->cpu0_DTLB PREFETCH     ACCESS:          0 HIT:          0 MISS:          0 MSHR_MERGE:          0
cpu0->cpu0_DTLB WRITE        ACCESS:          0 HIT:          0 MISS:          0 MSHR_MERGE:          0
cpu0->cpu0_DTLB TRANSLATION  ACCESS:          0 HIT:          0 MISS:          0 MSHR_MERGE:          0
cpu0->cpu0_DTLB PREFETCH REQUESTED:          0 ISSUED:          0 USEFUL:          0 USELESS:          0
cpu0->cpu0_DTLB AVERAGE MISS LATENCY: 41.53 cycles
cpu0->LLC TOTAL        ACCESS:    2155431 HIT:     500009 MISS:    1655422 MSHR_MERGE:        223
cpu0->LLC LOAD         ACCESS:     529589 HIT:     125562 MISS:     404027 MSHR_MERGE:          4
cpu0->LLC RFO          ACCESS:      67426 HIT:       9840 MISS:      57586 MSHR_MERGE:          1
cpu0->LLC PREFETCH     ACCESS:     876379 HIT:     166781 MISS:     709598 MSHR_MERGE:        218
cpu0->LLC WRITE        ACCESS:     404786 HIT:     145438 MISS:     259348 MSHR_MERGE:          0
cpu0->LLC TRANSLATION  ACCESS:     277251 HIT:      52388 MISS:     224863 MSHR_MERGE:          0
cpu0->LLC PREFETCH REQUESTED:          0 ISSUED:          0 USEFUL:          0 USELESS:          0
cpu0->LLC AVERAGE MISS LATENCY: 65.12 cycles

DRAM Statistics

Channel 0 RQ ROW_BUFFER_HIT:      30990
  ROW_BUFFER_MISS:    1364821
  AVG DBUS CONGESTED CYCLE: 9.541
Channel 0 WQ ROW_BUFFER_HIT:      51807
  ROW_BUFFER_MISS:     242285
  FULL:          0
Channel 0 REFRESHES ISSUED:       8710
