[VMEM] WARNING: physical memory size is smaller than virtual memory size.
WARNING: option --warmup_instructions is deprecated. Use --warmup-instructions instead.
WARNING: option --simulation_instructions is deprecated. Use --simulation-instructions instead.

*** ChampSim Multicore Out-of-Order Simulator ***
Warmup Instructions: 20000000
Simulation Instructions: 50000000
Number of CPUs: 1
Page size: 8192

Off-chip DRAM Size: 16 GiB Channels: 1 Width: 64-bit Data Rate: 3205 MT/s
Heartbeat CPU 0 instructions: 10000000 cycles: 6987332 heartbeat IPC: 1.431 cumulative IPC: 1.431 (Simulation time: 00 hr 01 min 28 sec)
Heartbeat CPU 0 instructions: 20000001 cycles: 11068117 heartbeat IPC: 2.451 cumulative IPC: 1.807 (Simulation time: 00 hr 02 min 38 sec)
Warmup finished CPU 0 instructions: 20000001 cycles: 11068117 cumulative IPC: 1.807 (Simulation time: 00 hr 02 min 38 sec)
Warmup complete CPU 0 instructions: 20000001 cycles: 11068117 cumulative IPC: 1.807 (Simulation time: 00 hr 02 min 38 sec)
Heartbeat CPU 0 instructions: 30000003 cycles: 61872922 heartbeat IPC: 0.1968 cumulative IPC: 0.1968 (Simulation time: 00 hr 08 min 15 sec)
Heartbeat CPU 0 instructions: 40000005 cycles: 113134325 heartbeat IPC: 0.1951 cumulative IPC: 0.196 (Simulation time: 00 hr 14 min 02 sec)
Heartbeat CPU 0 instructions: 50000006 cycles: 164609853 heartbeat IPC: 0.1943 cumulative IPC: 0.1954 (Simulation time: 00 hr 19 min 58 sec)
Heartbeat CPU 0 instructions: 60000007 cycles: 215555263 heartbeat IPC: 0.1963 cumulative IPC: 0.1956 (Simulation time: 00 hr 25 min 51 sec)
Simulation finished CPU 0 instructions: 50000002 cycles: 254110090 cumulative IPC: 0.1968 (Simulation time: 00 hr 31 min 40 sec)
Simulation complete CPU 0 instructions: 50000002 cycles: 254110090 cumulative IPC: 0.1968 (Simulation time: 00 hr 31 min 40 sec)

ChampSim completed all CPUs

=== Simulation ===
CPU 0 runs traces/473.astar-359B.champsimtrace.xz

Region of Interest Statistics

CPU 0 cumulative IPC: 0.1968 instructions: 50000002 cycles: 254110090
CPU 0 Branch Prediction Accuracy: 93.2% MPKI: 13.43 Average ROB Occupancy at Mispredict: 44.43
Branch type MPKI
BRANCH_DIRECT_JUMP: 0
BRANCH_INDIRECT: 0
BRANCH_CONDITIONAL: 13.42
BRANCH_DIRECT_CALL: 0
BRANCH_INDIRECT_CALL: 0.00054
BRANCH_RETURN: 0

cpu0->cpu0_STLB TOTAL        ACCESS:    1275703 HIT:     889442 MISS:     386261 MSHR_MERGE:          0
cpu0->cpu0_STLB LOAD         ACCESS:    1275703 HIT:     889442 MISS:     386261 MSHR_MERGE:          0
cpu0->cpu0_STLB RFO          ACCESS:          0 HIT:          0 MISS:          0 MSHR_MERGE:          0
cpu0->cpu0_STLB PREFETCH     ACCESS:          0 HIT:          0 MISS:          0 MSHR_MERGE:          0
cpu0->cpu0_STLB WRITE        ACCESS:          0 HIT:          0 MISS:          0 MSHR_MERGE:          0
cpu0->cpu0_STLB TRANSLATION  ACCESS:          0 HIT:          0 MISS:          0 MSHR_MERGE:          0
cpu0->cpu0_STLB PREFETCH REQUESTED:          0 ISSUED:          0 USEFUL:          0 USELESS:          0
cpu0->cpu0_STLB AVERAGE MISS LATENCY: 513.1 cycles
cpu0->cpu0_L2C TOTAL        ACCESS:    4361425 HIT:    1957085 MISS:    2404340 MSHR_MERGE:          0
cpu0->cpu0_L2C LOAD         ACCESS:    1775424 HIT:     732500 MISS:    1042924 MSHR_MERGE:          0
cpu0->cpu0_L2C RFO          ACCESS:     767645 HIT:      47652 MISS:     719993 MSHR_MERGE:          0
cpu0->cpu0_L2C PREFETCH     ACCESS:          0 HIT:          0 MISS:          0 MSHR_MERGE:          0
cpu0->cpu0_L2C WRITE        ACCESS:    1168878 HIT:    1168844 MISS:         34 MSHR_MERGE:          0
cpu0->cpu0_L2C TRANSLATION  ACCESS:     649478 HIT:       8089 MISS:     641389 MSHR_MERGE:          0
cpu0->cpu0_L2C PREFETCH REQUESTED:          0 ISSUED:          0 USEFUL:          0 USELESS:          0
cpu0->cpu0_L2C AVERAGE MISS LATENCY: 246.3 cycles
cpu0->cpu0_L1I TOTAL        ACCESS:     832358 HIT:     832351 MISS:          7 MSHR_MERGE:          0
cpu0->cpu0_L1I LOAD         ACCESS:     832358 HIT:     832351 MISS:          7 MSHR_MERGE:          0
cpu0->cpu0_L1I RFO          ACCESS:          0 HIT:          0 MISS:          0 MSHR_MERGE:          0
cpu0->cpu0_L1I PREFETCH     ACCESS:          0 HIT:          0 MISS:          0 MSHR_MERGE:          0
cpu0->cpu0_L1I WRITE        ACCESS:          0 HIT:          0 MISS:          0 MSHR_MERGE:          0
cpu0->cpu0_L1I TRANSLATION  ACCESS:          0 HIT:          0 MISS:          0 MSHR_MERGE:          0
cpu0->cpu0_L1I PREFETCH REQUESTED:          0 ISSUED:          0 USEFUL:          0 USELESS:          0
cpu0->cpu0_L1I AVERAGE MISS LATENCY: 179.6 cycles
cpu0->cpu0_L1D TOTAL        ACCESS:   19884591 HIT:   15908554 MISS:    3976037 MSHR_MERGE:     783495
cpu0->cpu0_L1D LOAD         ACCESS:   12795037 HIT:   10324059 MISS:    2470978 MSHR_MERGE:     695559
cpu0->cpu0_L1D RFO          ACCESS:          0 HIT:          0 MISS:          0 MSHR_MERGE:          0
cpu0->cpu0_L1D PREFETCH     ACCESS:          0 HIT:          0 MISS:          0 MSHR_MERGE:          0
cpu0->cpu0_L1D WRITE        ACCESS:    6314533 HIT:    5546816 MISS:     767717 MSHR_MERGE:         72
cpu0->cpu0_L1D TRANSLATION  ACCESS:     775021 HIT:      37679 MISS:     737342 MSHR_MERGE:      87864
cpu0->cpu0_L1D PREFETCH REQUESTED:          0 ISSUED:          0 USEFUL:          0 USELESS:          0
cpu0->cpu0_L1D AVERAGE MISS LATENCY: 194.3 cycles
cpu0->cpu0_ITLB TOTAL        ACCESS:     829824 HIT:     829824 MISS:          0 MSHR_MERGE:          0
cpu0->cpu0_ITLB LOAD         ACCESS:     829824 HIT:     829824 MISS:          0 MSHR_MERGE:          0
cpu0->cpu0_ITLB RFO          ACCESS:          0 HIT:          0 MISS:          0 MSHR_MERGE:          0
cpu0->cpu0_ITLB PREFETCH     ACCESS:          0 HIT:          0 MISS:          0 MSHR_MERGE:          0
cpu0->cpu0_ITLB WRITE        ACCESS:          0 HIT:          0 MISS:          0 MSHR_MERGE:          0
cpu0->cpu0_ITLB TRANSLATION  ACCESS:          0 HIT:          0 MISS:          0 MSHR_MERGE:          0
cpu0->cpu0_ITLB PREFETCH REQUESTED:          0 ISSUED:          0 USEFUL:          0 USELESS:          0
cpu0->cpu0_ITLB AVERAGE MISS LATENCY: - cycles
cpu0->cpu0_DTLB TOTAL        ACCESS:   18168830 HIT:   16304850 MISS:    1863980 MSHR_MERGE:     588277
cpu0->cpu0_DTLB LOAD         ACCESS:   18168830 HIT:   16304850 MISS:    1863980 MSHR_MERGE:     588277
cpu0->cpu0_DTLB RFO          ACCESS:          0 HIT:          0 MISS:          0 MSHR_MERGE:          0
cpu0->cpu0_DTLB PREFETCH     ACCESS:          0 HIT:          0 MISS:          0 MSHR_MERGE:          0
cpu0->cpu0_DTLB WRITE        ACCESS:          0 HIT:          0 MISS:          0 MSHR_MERGE:          0
cpu0->cpu0_DTLB TRANSLATION  ACCESS:          0 HIT:          0 MISS:          0 MSHR_MERGE:          0
cpu0->cpu0_DTLB PREFETCH REQUESTED:          0 ISSUED:          0 USEFUL:          0 USELESS:          0
cpu0->cpu0_DTLB AVERAGE MISS LATENCY: 159.7 cycles
cpu0->LLC TOTAL        ACCESS:    3523713 HIT:     758449 MISS:    2765264 MSHR_MERGE:          0
cpu0->LLC LOAD         ACCESS:    1042924 HIT:     207522 MISS:     835402 MSHR_MERGE:          0
cpu0->LLC RFO          ACCESS:     719993 HIT:     140389 MISS:     579604 MSHR_MERGE:          0
cpu0->LLC PREFETCH     ACCESS:          0 HIT:          0 MISS:          0 MSHR_MERGE:          0
cpu0->LLC WRITE        ACCESS:    1119407 HIT:     288861 MISS:     830546 MSHR_MERGE:          0
cpu0->LLC TRANSLATION  ACCESS:     641389 HIT:     121677 MISS:     519712 MSHR_MERGE:          0
cpu0->LLC PREFETCH REQUESTED:          0 ISSUED:          0 USEFUL:          0 USELESS:          0
cpu0->LLC AVERAGE MISS LATENCY: 202.3 cycles

DRAM Statistics

Channel 0 RQ ROW_BUFFER_HIT:      61399
  ROW_BUFFER_MISS:    1873202
  AVG DBUS CONGESTED CYCLE: 20.37
Channel 0 WQ ROW_BUFFER_HIT:     135392
  ROW_BUFFER_MISS:     744764
  FULL:         79
Channel 0 REFRESHES ISSUED:      21176
