[VMEM] WARNING: physical memory size is smaller than virtual memory size.
WARNING: option --warmup_instructions is deprecated. Use --warmup-instructions instead.
WARNING: option --simulation_instructions is deprecated. Use --simulation-instructions instead.

*** ChampSim Multicore Out-of-Order Simulator ***
Warmup Instructions: 20000000
Simulation Instructions: 50000000
Number of CPUs: 1
Page size: 8192

Off-chip DRAM Size: 16 GiB Channels: 1 Width: 64-bit Data Rate: 3205 MT/s
Heartbeat CPU 0 instructions: 10000001 cycles: 4377787 heartbeat IPC: 2.284 cumulative IPC: 2.284 (Simulation time: 00 hr 00 min 47 sec)
Heartbeat CPU 0 instructions: 20000002 cycles: 8700368 heartbeat IPC: 2.313 cumulative IPC: 2.299 (Simulation time: 00 hr 01 min 34 sec)
Warmup finished CPU 0 instructions: 20000002 cycles: 8700368 cumulative IPC: 2.299 (Simulation time: 00 hr 01 min 34 sec)
Warmup complete CPU 0 instructions: 20000002 cycles: 8700368 cumulative IPC: 2.299 (Simulation time: 00 hr 01 min 34 sec)
Heartbeat CPU 0 instructions: 30000005 cycles: 39062719 heartbeat IPC: 0.3294 cumulative IPC: 0.3294 (Simulation time: 00 hr 04 min 05 sec)
Heartbeat CPU 0 instructions: 40000005 cycles: 69135381 heartbeat IPC: 0.3325 cumulative IPC: 0.3309 (Simulation time: 00 hr 06 min 31 sec)
Heartbeat CPU 0 instructions: 50000007 cycles: 99613997 heartbeat IPC: 0.3281 cumulative IPC: 0.33 (Simulation time: 00 hr 08 min 57 sec)
Heartbeat CPU 0 instructions: 60000007 cycles: 129794225 heartbeat IPC: 0.3313 cumulative IPC: 0.3303 (Simulation time: 00 hr 11 min 22 sec)
Simulation finished CPU 0 instructions: 50000002 cycles: 151755829 cumulative IPC: 0.3295 (Simulation time: 00 hr 13 min 51 sec)
Simulation complete CPU 0 instructions: 50000002 cycles: 151755829 cumulative IPC: 0.3295 (Simulation time: 00 hr 13 min 51 sec)

ChampSim completed all CPUs

=== Simulation ===
CPU 0 runs traces/605.mcf_s-1152B.champsimtrace.xz

Region of Interest Statistics

CPU 0 cumulative IPC: 0.3295 instructions: 50000002 cycles: 151755829
CPU 0 Branch Prediction Accuracy: 90.19% MPKI: 24.48 Average ROB Occupancy at Mispredict: 21.34
Branch type MPKI
BRANCH_DIRECT_JUMP: 0.2057
BRANCH_INDIRECT: 0
BRANCH_CONDITIONAL: 24.27
BRANCH_DIRECT_CALL: 0
BRANCH_INDIRECT_CALL: 0.0036
BRANCH_RETURN: 2e-05

cpu0->cpu0_STLB TOTAL        ACCESS:    1006237 HIT:    1000480 MISS:       5757 MSHR_MERGE:          0
cpu0->cpu0_STLB LOAD         ACCESS:    1006237 HIT:    1000480 MISS:       5757 MSHR_MERGE:          0
cpu0->cpu0_STLB RFO          ACCESS:          0 HIT:          0 MISS:          0 MSHR_MERGE:          0
cpu0->cpu0_STLB PREFETCH     ACCESS:          0 HIT:          0 MISS:          0 MSHR_MERGE:          0
cpu0->cpu0_STLB WRITE        ACCESS:          0 HIT:          0 MISS:          0 MSHR_MERGE:          0
cpu0->cpu0_STLB TRANSLATION  ACCESS:          0 HIT:          0 MISS:          0 MSHR_MERGE:          0
cpu0->cpu0_STLB PREFETCH REQUESTED:          0 ISSUED:          0 USEFUL:          0 USELESS:          0
cpu0->cpu0_STLB AVERAGE MISS LATENCY: 606 cycles
cpu0->cpu0_L2C TOTAL        ACCESS:    2349416 HIT:     645453 MISS:    1703963 MSHR_MERGE:          0
cpu0->cpu0_L2C LOAD         ACCESS:    2000523 HIT:     374999 MISS:    1625524 MSHR_MERGE:          0
cpu0->cpu0_L2C RFO          ACCESS:     143308 HIT:      71638 MISS:      71670 MSHR_MERGE:          0
cpu0->cpu0_L2C PREFETCH     ACCESS:          0 HIT:          0 MISS:          0 MSHR_MERGE:          0
cpu0->cpu0_L2C WRITE        ACCESS:     198486 HIT:     198160 MISS:        326 MSHR_MERGE:          0
cpu0->cpu0_L2C TRANSLATION  ACCESS:       7099 HIT:        656 MISS:       6443 MSHR_MERGE:          0
cpu0->cpu0_L2C PREFETCH REQUESTED:          0 ISSUED:          0 USEFUL:          0 USELESS:          0
cpu0->cpu0_L2C AVERAGE MISS LATENCY: 55.46 cycles
cpu0->cpu0_L1I TOTAL        ACCESS:     386697 HIT:     386697 MISS:          0 MSHR_MERGE:          0
cpu0->cpu0_L1I LOAD         ACCESS:     386697 HIT:     386697 MISS:          0 MSHR_MERGE:          0
cpu0->cpu0_L1I RFO          ACCESS:          0 HIT:          0 MISS:          0 MSHR_MERGE:          0
cpu0->cpu0_L1I PREFETCH     ACCESS:          0 HIT:          0 MISS:          0 MSHR_MERGE:          0
cpu0->cpu0_L1I WRITE        ACCESS:          0 HIT:          0 MISS:          0 MSHR_MERGE:          0
cpu0->cpu0_L1I TRANSLATION  ACCESS:          0 HIT:          0 MISS:          0 MSHR_MERGE:          0
cpu0->cpu0_L1I PREFETCH REQUESTED:          0 ISSUED:          0 USEFUL:          0 USELESS:          0
cpu0->cpu0_L1I AVERAGE MISS LATENCY: - cycles
cpu0->cpu0_L1D TOTAL        ACCESS:   17486666 HIT:   14568096 MISS:    2918570 MSHR_MERGE:     767638
cpu0->cpu0_L1D LOAD         ACCESS:   12311529 HIT:    9823465 MISS:    2488064 MSHR_MERGE:     487539
cpu0->cpu0_L1D RFO          ACCESS:          0 HIT:          0 MISS:          0 MSHR_MERGE:          0
cpu0->cpu0_L1D PREFETCH     ACCESS:          0 HIT:          0 MISS:          0 MSHR_MERGE:          0
cpu0->cpu0_L1D WRITE        ACCESS:    5163527 HIT:    4740120 MISS:     423407 MSHR_MERGE:     280099
cpu0->cpu0_L1D TRANSLATION  ACCESS:      11610 HIT:       4511 MISS:       7099 MSHR_MERGE:          0
cpu0->cpu0_L1D PREFETCH REQUESTED:          0 ISSUED:          0 USEFUL:          0 USELESS:          0
cpu0->cpu0_L1D AVERAGE MISS LATENCY: 52.73 cycles
cpu0->cpu0_ITLB TOTAL        ACCESS:     371164 HIT:     371164 MISS:          0 MSHR_MERGE:          0
cpu0->cpu0_ITLB LOAD         ACCESS:     371164 HIT:     371164 MISS:          0 MSHR_MERGE:          0
cpu0->cpu0_ITLB RFO          ACCESS:          0 HIT:          0 MISS:          0 MSHR_MERGE:          0
cpu0->cpu0_ITLB PREFETCH     ACCESS:          0 HIT:          0 MISS:          0 MSHR_MERGE:          0
cpu0->cpu0_ITLB WRITE        ACCESS:          0 HIT:          0 MISS:          0 MSHR_MERGE:          0
cpu0->cpu0_ITLB TRANSLATION  ACCESS:          0 HIT:          0 MISS:          0 MSHR_MERGE:          0
cpu0->cpu0_ITLB PREFETCH REQUESTED:          0 ISSUED:          0 USEFUL:          0 USELESS:          0
cpu0->cpu0_ITLB AVERAGE MISS LATENCY: - cycles
cpu0->cpu0_DTLB TOTAL        ACCESS:   16425709 HIT:   15244197 MISS:    1181512 MSHR_MERGE:     175275
cpu0->cpu0_DTLB LOAD         ACCESS:   16425709 HIT:   15244197 MISS:    1181512 MSHR_MERGE:     175275
cpu0->cpu0_DTLB RFO          ACCESS:          0 HIT:          0 MISS:          0 MSHR_MERGE:          0
cpu0->cpu0_DTLB PREFETCH     ACCESS:          0 HIT:          0 MISS:          0 MSHR_MERGE:          0
cpu0->cpu0_DTLB WRITE        ACCESS:          0 HIT:          0 MISS:          0 MSHR_MERGE:          0
cpu0->cpu0_DTLB TRANSLATION  ACCESS:          0 HIT:          0 MISS:          0 MSHR_MERGE:          0
cpu0->cpu0_DTLB PREFETCH REQUESTED:          0 ISSUED:          0 USEFUL:          0 USELESS:          0
cpu0->cpu0_DTLB AVERAGE MISS LATENCY: 7.473 cycles
cpu0->LLC TOTAL        ACCESS:    1837910 HIT:    1328589 MISS:     509321 MSHR_MERGE:          0
cpu0->LLC LOAD         ACCESS:    1625524 HIT:    1126344 MISS:     499180 MSHR_MERGE:          0
cpu0->LLC RFO          ACCESS:      71670 HIT:      70627 MISS:       1043 MSHR_MERGE:          0
cpu0->LLC PREFETCH     ACCESS:          0 HIT:          0 MISS:          0 MSHR_MERGE:          0
cpu0->LLC WRITE        ACCESS:     134273 HIT:     131615 MISS:       2658 MSHR_MERGE:          0
cpu0->LLC TRANSLATION  ACCESS:       6443 HIT:          3 MISS:       6440 MSHR_MERGE:          0
cpu0->LLC PREFETCH REQUESTED:          0 ISSUED:          0 USEFUL:          0 USELESS:          0
cpu0->LLC AVERAGE MISS LATENCY: 131.1 cycles

DRAM Statistics

Channel 0 RQ ROW_BUFFER_HIT:      36485
  ROW_BUFFER_MISS:     470173
  AVG DBUS CONGESTED CYCLE: 15.46
Channel 0 WQ ROW_BUFFER_HIT:        453
  ROW_BUFFER_MISS:       4214
  FULL:          0
Channel 0 REFRESHES ISSUED:      12646
