[VMEM] WARNING: physical memory size is smaller than virtual memory size.
WARNING: option --warmup_instructions is deprecated. Use --warmup-instructions instead.
WARNING: option --simulation_instructions is deprecated. Use --simulation-instructions instead.

*** ChampSim Multicore Out-of-Order Simulator ***
Warmup Instructions: 20000000
Simulation Instructions: 50000000
Number of CPUs: 1
Page size: 8192

Off-chip DRAM Size: 16 GiB Channels: 1 Width: 64-bit Data Rate: 3205 MT/s
Heartbeat CPU 0 instructions: 10000000 cycles: 6844327 heartbeat IPC: 1.461 cumulative IPC: 1.461 (Simulation time: 00 hr 01 min 08 sec)
Heartbeat CPU 0 instructions: 20000001 cycles: 10768488 heartbeat IPC: 2.548 cumulative IPC: 1.857 (Simulation time: 00 hr 01 min 55 sec)
Warmup finished CPU 0 instructions: 20000001 cycles: 10768488 cumulative IPC: 1.857 (Simulation time: 00 hr 01 min 55 sec)
Warmup complete CPU 0 instructions: 20000001 cycles: 10768488 cumulative IPC: 1.857 (Simulation time: 00 hr 01 min 55 sec)
Heartbeat CPU 0 instructions: 30000003 cycles: 59144495 heartbeat IPC: 0.2067 cumulative IPC: 0.2067 (Simulation time: 00 hr 05 min 58 sec)
Heartbeat CPU 0 instructions: 40000005 cycles: 108122551 heartbeat IPC: 0.2042 cumulative IPC: 0.2054 (Simulation time: 00 hr 10 min 09 sec)
Heartbeat CPU 0 instructions: 50000007 cycles: 157849188 heartbeat IPC: 0.2011 cumulative IPC: 0.204 (Simulation time: 00 hr 14 min 31 sec)
Heartbeat CPU 0 instructions: 60000007 cycles: 206698514 heartbeat IPC: 0.2047 cumulative IPC: 0.2042 (Simulation time: 00 hr 18 min 42 sec)
Simulation finished CPU 0 instructions: 50000002 cycles: 242702691 cumulative IPC: 0.206 (Simulation time: 00 hr 22 min 49 sec)
Simulation complete CPU 0 instructions: 50000002 cycles: 242702691 cumulative IPC: 0.206 (Simulation time: 00 hr 22 min 49 sec)

ChampSim completed all CPUs

=== Simulation ===
CPU 0 runs traces/473.astar-359B.champsimtrace.xz

Region of Interest Statistics

CPU 0 cumulative IPC: 0.206 instructions: 50000002 cycles: 242702691
CPU 0 Branch Prediction Accuracy: 93.2% MPKI: 13.43 Average ROB Occupancy at Mispredict: 43.56
Branch type MPKI
BRANCH_DIRECT_JUMP: 0
BRANCH_INDIRECT: 0
BRANCH_CONDITIONAL: 13.42
BRANCH_DIRECT_CALL: 0
BRANCH_INDIRECT_CALL: 0.00054
BRANCH_RETURN: 0

cpu0->cpu0_STLB TOTAL        ACCESS:    1275681 HIT:     889429 MISS:     386252 MSHR_MERGE:          0
cpu0->cpu0_STLB LOAD         ACCESS:    1275681 HIT:     889429 MISS:     386252 MSHR_MERGE:          0
cpu0->cpu0_STLB RFO          ACCESS:          0 HIT:          0 MISS:          0 MSHR_MERGE:          0
cpu0->cpu0_STLB PREFETCH     ACCESS:          0 HIT:          0 MISS:          0 MSHR_MERGE:          0
cpu0->cpu0_STLB WRITE        ACCESS:          0 HIT:          0 MISS:          0 MSHR_MERGE:          0
cpu0->cpu0_STLB TRANSLATION  ACCESS:          0 HIT:          0 MISS:          0 MSHR_MERGE:          0
cpu0->cpu0_STLB PREFETCH REQUESTED:          0 ISSUED:          0 USEFUL:          0 USELESS:          0
cpu0->cpu0_STLB AVERAGE MISS LATENCY: 622.4 cycles
cpu0->cpu0_L2C TOTAL        ACCESS:    4040411 HIT:    1919221 MISS:    2121190 MSHR_MERGE:          0
cpu0->cpu0_L2C LOAD         ACCESS:    1562672 HIT:     759910 MISS:     802762 MSHR_MERGE:          0
cpu0->cpu0_L2C RFO          ACCESS:     722051 HIT:      25912 MISS:     696139 MSHR_MERGE:          0
cpu0->cpu0_L2C PREFETCH     ACCESS:          0 HIT:          0 MISS:          0 MSHR_MERGE:          0
cpu0->cpu0_L2C WRITE        ACCESS:    1122909 HIT:    1122870 MISS:         39 MSHR_MERGE:          0
cpu0->cpu0_L2C TRANSLATION  ACCESS:     632779 HIT:      10529 MISS:     622250 MSHR_MERGE:          0
cpu0->cpu0_L2C PREFETCH REQUESTED:          0 ISSUED:          0 USEFUL:          0 USELESS:          0
cpu0->cpu0_L2C AVERAGE MISS LATENCY: 305.6 cycles
cpu0->cpu0_L1I TOTAL        ACCESS:     817363 HIT:     817359 MISS:          4 MSHR_MERGE:          0
cpu0->cpu0_L1I LOAD         ACCESS:     817363 HIT:     817359 MISS:          4 MSHR_MERGE:          0
cpu0->cpu0_L1I RFO          ACCESS:          0 HIT:          0 MISS:          0 MSHR_MERGE:          0
cpu0->cpu0_L1I PREFETCH     ACCESS:          0 HIT:          0 MISS:          0 MSHR_MERGE:          0
cpu0->cpu0_L1I WRITE        ACCESS:          0 HIT:          0 MISS:          0 MSHR_MERGE:          0
cpu0->cpu0_L1I TRANSLATION  ACCESS:          0 HIT:          0 MISS:          0 MSHR_MERGE:          0
cpu0->cpu0_L1I PREFETCH REQUESTED:          0 ISSUED:          0 USEFUL:          0 USELESS:          0
cpu0->cpu0_L1I AVERAGE MISS LATENCY: 186.5 cycles
cpu0->cpu0_L1D TOTAL        ACCESS:   19289360 HIT:   15627490 MISS:    3661870 MSHR_MERGE:     744371
cpu0->cpu0_L1D LOAD         ACCESS:   12200085 HIT:   10011272 MISS:    2188813 MSHR_MERGE:     626145
cpu0->cpu0_L1D RFO          ACCESS:          0 HIT:          0 MISS:          0 MSHR_MERGE:          0
cpu0->cpu0_L1D PREFETCH     ACCESS:          0 HIT:          0 MISS:          0 MSHR_MERGE:          0
cpu0->cpu0_L1D WRITE        ACCESS:    6314459 HIT:    5571824 MISS:     742635 MSHR_MERGE:      20583
cpu0->cpu0_L1D TRANSLATION  ACCESS:     774816 HIT:      44394 MISS:     730422 MSHR_MERGE:      97643
cpu0->cpu0_L1D PREFETCH REQUESTED:          0 ISSUED:          0 USEFUL:          0 USELESS:          0
cpu0->cpu0_L1D AVERAGE MISS LATENCY: 231 cycles
cpu0->cpu0_ITLB TOTAL        ACCESS:     816005 HIT:     816005 MISS:          0 MSHR_MERGE:          0
cpu0->cpu0_ITLB LOAD         ACCESS:     816005 HIT:     816005 MISS:          0 MSHR_MERGE:          0
cpu0->cpu0_ITLB RFO          ACCESS:          0 HIT:          0 MISS:          0 MSHR_MERGE:          0
cpu0->cpu0_ITLB PREFETCH     ACCESS:          0 HIT:          0 MISS:          0 MSHR_MERGE:          0
cpu0->cpu0_ITLB WRITE        ACCESS:          0 HIT:          0 MISS:          0 MSHR_MERGE:          0
cpu0->cpu0_ITLB TRANSLATION  ACCESS:          0 HIT:          0 MISS:          0 MSHR_MERGE:          0
cpu0->cpu0_ITLB PREFETCH REQUESTED:          0 ISSUED:          0 USEFUL:          0 USELESS:          0
cpu0->cpu0_ITLB AVERAGE MISS LATENCY: - cycles
cpu0->cpu0_DTLB TOTAL        ACCESS:   17607507 HIT:   15750914 MISS:    1856593 MSHR_MERGE:     580912
cpu0->cpu0_DTLB LOAD         ACCESS:   17607507 HIT:   15750914 MISS:    1856593 MSHR_MERGE:     580912
cpu0->cpu0_DTLB RFO          ACCESS:          0 HIT:          0 MISS:          0 MSHR_MERGE:          0
cpu0->cpu0_DTLB PREFETCH     ACCESS:          0 HIT:          0 MISS:          0 MSHR_MERGE:          0
cpu0->cpu0_DTLB WRITE        ACCESS:          0 HIT:          0 MISS:          0 MSHR_MERGE:          0
cpu0->cpu0_DTLB TRANSLATION  ACCESS:          0 HIT:          0 MISS:          0 MSHR_MERGE:          0
cpu0->cpu0_DTLB PREFETCH REQUESTED:          0 ISSUED:          0 USEFUL:          0 USELESS:          0
cpu0->cpu0_DTLB AVERAGE MISS LATENCY: 192.8 cycles
cpu0->LLC TOTAL        ACCESS:    3215315 HIT:     889684 MISS:    2325631 MSHR_MERGE:          0
cpu0->LLC LOAD         ACCESS:     802762 HIT:     224488 MISS:     578274 MSHR_MERGE:          0
cpu0->LLC RFO          ACCESS:     696139 HIT:     172896 MISS:     523243 MSHR_MERGE:          0
cpu0->LLC PREFETCH     ACCESS:          0 HIT:          0 MISS:          0 MSHR_MERGE:          0
cpu0->LLC WRITE        ACCESS:    1094164 HIT:     346574 MISS:     747590 MSHR_MERGE:          0
cpu0->LLC TRANSLATION  ACCESS:     622250 HIT:     145726 MISS:     476524 MSHR_MERGE:          0
cpu0->LLC PREFETCH REQUESTED:          0 ISSUED:          0 USEFUL:          0 USELESS:          0
cpu0->LLC AVERAGE MISS LATENCY: 266.3 cycles

DRAM Statistics

Channel 0 RQ ROW_BUFFER_HIT:      39708
  ROW_BUFFER_MISS:    1538192
  AVG DBUS CONGESTED CYCLE: 17.6
Channel 0 WQ ROW_BUFFER_HIT:      94718
  ROW_BUFFER_MISS:     709425
  FULL:        158
Channel 0 REFRESHES ISSUED:      20225
