[VMEM] WARNING: physical memory size is smaller than virtual memory size.
WARNING: option --warmup_instructions is deprecated. Use --warmup-instructions instead.
WARNING: option --simulation_instructions is deprecated. Use --simulation-instructions instead.

*** ChampSim Multicore Out-of-Order Simulator ***
Warmup Instructions: 20000000
Simulation Instructions: 50000000
Number of CPUs: 1
Page size: 8192

Off-chip DRAM Size: 16 GiB Channels: 1 Width: 64-bit Data Rate: 3205 MT/s
Heartbeat CPU 0 instructions: 10000001 cycles: 2974190 heartbeat IPC: 3.362 cumulative IPC: 3.362 (Simulation time: 00 hr 00 min 30 sec)
Warmup finished CPU 0 instructions: 20000000 cycles: 5936915 cumulative IPC: 3.369 (Simulation time: 00 hr 01 min 00 sec)
Warmup complete CPU 0 instructions: 20000000 cycles: 5936915 cumulative IPC: 3.369 (Simulation time: 00 hr 01 min 00 sec)
Heartbeat CPU 0 instructions: 20000004 cycles: 5936916 heartbeat IPC: 3.375 cumulative IPC: 4 (Simulation time: 00 hr 01 min 00 sec)
Heartbeat CPU 0 instructions: 30000006 cycles: 18271269 heartbeat IPC: 0.8107 cumulative IPC: 0.8107 (Simulation time: 00 hr 02 min 42 sec)
Heartbeat CPU 0 instructions: 40000009 cycles: 30506807 heartbeat IPC: 0.8173 cumulative IPC: 0.814 (Simulation time: 00 hr 04 min 27 sec)
Heartbeat CPU 0 instructions: 50000009 cycles: 42667075 heartbeat IPC: 0.8224 cumulative IPC: 0.8168 (Simulation time: 00 hr 06 min 09 sec)
Heartbeat CPU 0 instructions: 60000010 cycles: 54824890 heartbeat IPC: 0.8225 cumulative IPC: 0.8182 (Simulation time: 00 hr 07 min 51 sec)
Simulation finished CPU 0 instructions: 50000002 cycles: 60984181 cumulative IPC: 0.8199 (Simulation time: 00 hr 09 min 31 sec)
Simulation complete CPU 0 instructions: 50000002 cycles: 60984181 cumulative IPC: 0.8199 (Simulation time: 00 hr 09 min 31 sec)

ChampSim completed all CPUs

=== Simulation ===
CPU 0 runs traces/470.lbm-1274B.champsimtrace.xz

Region of Interest Statistics

CPU 0 cumulative IPC: 0.8199 instructions: 50000002 cycles: 60984181
CPU 0 Branch Prediction Accuracy: 99.79% MPKI: 0.02864 Average ROB Occupancy at Mispredict: 189.9
Branch type MPKI
BRANCH_DIRECT_JUMP: 0
BRANCH_INDIRECT: 0
BRANCH_CONDITIONAL: 0.02864
BRANCH_DIRECT_CALL: 0
BRANCH_INDIRECT_CALL: 0
BRANCH_RETURN: 0

cpu0->cpu0_STLB TOTAL        ACCESS:      11115 HIT:       5557 MISS:       5558 MSHR_MERGE:          0
cpu0->cpu0_STLB LOAD         ACCESS:      11115 HIT:       5557 MISS:       5558 MSHR_MERGE:          0
cpu0->cpu0_STLB RFO          ACCESS:          0 HIT:          0 MISS:          0 MSHR_MERGE:          0
cpu0->cpu0_STLB PREFETCH     ACCESS:          0 HIT:          0 MISS:          0 MSHR_MERGE:          0
cpu0->cpu0_STLB WRITE        ACCESS:          0 HIT:          0 MISS:          0 MSHR_MERGE:          0
cpu0->cpu0_STLB TRANSLATION  ACCESS:          0 HIT:          0 MISS:          0 MSHR_MERGE:          0
cpu0->cpu0_STLB PREFETCH REQUESTED:          0 ISSUED:          0 USEFUL:          0 USELESS:          0
cpu0->cpu0_STLB AVERAGE MISS LATENCY: 1196 cycles
cpu0->cpu0_L2C TOTAL        ACCESS:    4880338 HIT:    3359827 MISS:    1520511 MSHR_MERGE:      78011
cpu0->cpu0_L2C LOAD         ACCESS:     355730 HIT:     240345 MISS:     115385 MSHR_MERGE:      42689
cpu0->cpu0_L2C RFO          ACCESS:    2002610 HIT:     924569 MISS:    1078041 MSHR_MERGE:          0
cpu0->cpu0_L2C PREFETCH     ACCESS:     508136 HIT:     189750 MISS:     318386 MSHR_MERGE:      35322
cpu0->cpu0_L2C WRITE        ACCESS:    2002734 HIT:    2002719 MISS:         15 MSHR_MERGE:          0
cpu0->cpu0_L2C TRANSLATION  ACCESS:      11128 HIT:       2444 MISS:       8684 MSHR_MERGE:          0
cpu0->cpu0_L2C PREFETCH REQUESTED:     508136 ISSUED:     508136 USEFUL:     283034 USELESS:         35
cpu0->cpu0_L2C AVERAGE MISS LATENCY: 478 cycles
cpu0->cpu0_L1I TOTAL        ACCESS:    8517945 HIT:    8517945 MISS:          0 MSHR_MERGE:          0
cpu0->cpu0_L1I LOAD         ACCESS:    8517945 HIT:    8517945 MISS:          0 MSHR_MERGE:          0
cpu0->cpu0_L1I RFO          ACCESS:          0 HIT:          0 MISS:          0 MSHR_MERGE:          0
cpu0->cpu0_L1I PREFETCH     ACCESS:          0 HIT:          0 MISS:          0 MSHR_MERGE:          0
cpu0->cpu0_L1I WRITE        ACCESS:          0 HIT:          0 MISS:          0 MSHR_MERGE:          0
cpu0->cpu0_L1I TRANSLATION  ACCESS:          0 HIT:          0 MISS:          0 MSHR_MERGE:          0
cpu0->cpu0_L1I PREFETCH REQUESTED:          0 ISSUED:          0 USEFUL:          0 USELESS:          0
cpu0->cpu0_L1I AVERAGE MISS LATENCY: - cycles
cpu0->cpu0_L1D TOTAL        ACCESS:    7286648 HIT:    4816101 MISS:    2470547 MSHR_MERGE:     100947
cpu0->cpu0_L1D LOAD         ACCESS:    2252001 HIT:    1850512 MISS:     401489 MSHR_MERGE:      45759
cpu0->cpu0_L1D RFO          ACCESS:          0 HIT:          0 MISS:          0 MSHR_MERGE:          0
cpu0->cpu0_L1D PREFETCH     ACCESS:          0 HIT:          0 MISS:          0 MSHR_MERGE:          0
cpu0->cpu0_L1D WRITE        ACCESS:    5023519 HIT:    2965589 MISS:    2057930 MSHR_MERGE:      55188
cpu0->cpu0_L1D TRANSLATION  ACCESS:      11128 HIT:          0 MISS:      11128 MSHR_MERGE:          0
cpu0->cpu0_L1D PREFETCH REQUESTED:          0 ISSUED:          0 USEFUL:          0 USELESS:          0
cpu0->cpu0_L1D AVERAGE MISS LATENCY: 270.2 cycles
cpu0->cpu0_ITLB TOTAL        ACCESS:    7004879 HIT:    7004879 MISS:          0 MSHR_MERGE:          0
cpu0->cpu0_ITLB LOAD         ACCESS:    7004879 HIT:    7004879 MISS:          0 MSHR_MERGE:          0
cpu0->cpu0_ITLB RFO          ACCESS:          0 HIT:          0 MISS:          0 MSHR_MERGE:          0
cpu0->cpu0_ITLB PREFETCH     ACCESS:          0 HIT:          0 MISS:          0 MSHR_MERGE:          0
cpu0->cpu0_ITLB WRITE        ACCESS:          0 HIT:          0 MISS:          0 MSHR_MERGE:          0
cpu0->cpu0_ITLB TRANSLATION  ACCESS:          0 HIT:          0 MISS:          0 MSHR_MERGE:          0
cpu0->cpu0_ITLB PREFETCH REQUESTED:          0 ISSUED:          0 USEFUL:          0 USELESS:          0
cpu0->cpu0_ITLB AVERAGE MISS LATENCY: - cycles
cpu0->cpu0_DTLB TOTAL        ACCESS:    6793327 HIT:    6769421 MISS:      23906 MSHR_MERGE:      12791
cpu0->cpu0_DTLB LOAD         ACCESS:    6793327 HIT:    6769421 MISS:      23906 MSHR_MERGE:      12791
cpu0->cpu0_DTLB RFO          ACCESS:          0 HIT:          0 MISS:          0 MSHR_MERGE:          0
cpu0->cpu0_DTLB PREFETCH     ACCESS:          0 HIT:          0 MISS:          0 MSHR_MERGE:          0
cpu0->cpu0_DTLB WRITE        ACCESS:          0 HIT:          0 MISS:          0 MSHR_MERGE:          0
cpu0->cpu0_DTLB TRANSLATION  ACCESS:          0 HIT:          0 MISS:          0 MSHR_MERGE:          0
cpu0->cpu0_DTLB PREFETCH REQUESTED:          0 ISSUED:          0 USEFUL:          0 USELESS:          0
cpu0->cpu0_DTLB AVERAGE MISS LATENCY: 602.6 cycles
cpu0->LLC TOTAL        ACCESS:    2520691 HIT:    1089168 MISS:    1431523 MSHR_MERGE:          0
cpu0->LLC LOAD         ACCESS:      72696 HIT:          0 MISS:      72696 MSHR_MERGE:          0
cpu0->LLC RFO          ACCESS:    1078038 HIT:      10977 MISS:    1067061 MSHR_MERGE:          0
cpu0->LLC PREFETCH     ACCESS:     283064 HIT:          0 MISS:     283064 MSHR_MERGE:          0
cpu0->LLC WRITE        ACCESS:    1078209 HIT:    1078191 MISS:         18 MSHR_MERGE:          0
cpu0->LLC TRANSLATION  ACCESS:       8684 HIT:          0 MISS:       8684 MSHR_MERGE:          0
cpu0->LLC PREFETCH REQUESTED:          0 ISSUED:          0 USEFUL:          0 USELESS:          0
cpu0->LLC AVERAGE MISS LATENCY: 472.3 cycles

DRAM Statistics

Channel 0 RQ ROW_BUFFER_HIT:      37929
  ROW_BUFFER_MISS:    1393565
  AVG DBUS CONGESTED CYCLE: 12.14
Channel 0 WQ ROW_BUFFER_HIT:     168173
  ROW_BUFFER_MISS:     898598
  FULL:          0
Channel 0 REFRESHES ISSUED:       5082
