[VMEM] WARNING: physical memory size is smaller than virtual memory size.
WARNING: option --warmup_instructions is deprecated. Use --warmup-instructions instead.
WARNING: option --simulation_instructions is deprecated. Use --simulation-instructions instead.

*** ChampSim Multicore Out-of-Order Simulator ***
Warmup Instructions: 20000000
Simulation Instructions: 50000000
Number of CPUs: 1
Page size: 8192

Off-chip DRAM Size: 16 GiB Channels: 1 Width: 64-bit Data Rate: 3205 MT/s
Heartbeat CPU 0 instructions: 10000000 cycles: 4304146 heartbeat IPC: 2.323 cumulative IPC: 2.323 (Simulation time: 00 hr 00 min 42 sec)
Heartbeat CPU 0 instructions: 20000000 cycles: 8600292 heartbeat IPC: 2.328 cumulative IPC: 2.326 (Simulation time: 00 hr 01 min 24 sec)
Warmup finished CPU 0 instructions: 20000000 cycles: 8600292 cumulative IPC: 2.326 (Simulation time: 00 hr 01 min 24 sec)
Warmup complete CPU 0 instructions: 20000000 cycles: 8600292 cumulative IPC: 2.326 (Simulation time: 00 hr 01 min 24 sec)
Heartbeat CPU 0 instructions: 30000003 cycles: 17145215 heartbeat IPC: 1.17 cumulative IPC: 1.17 (Simulation time: 00 hr 02 min 29 sec)
Heartbeat CPU 0 instructions: 40000003 cycles: 25701547 heartbeat IPC: 1.169 cumulative IPC: 1.17 (Simulation time: 00 hr 03 min 35 sec)
Heartbeat CPU 0 instructions: 50000003 cycles: 34233866 heartbeat IPC: 1.172 cumulative IPC: 1.17 (Simulation time: 00 hr 04 min 40 sec)
Heartbeat CPU 0 instructions: 60000005 cycles: 42770031 heartbeat IPC: 1.171 cumulative IPC: 1.171 (Simulation time: 00 hr 05 min 44 sec)
Simulation finished CPU 0 instructions: 50000000 cycles: 42711579 cumulative IPC: 1.171 (Simulation time: 00 hr 06 min 48 sec)
Simulation complete CPU 0 instructions: 50000000 cycles: 42711579 cumulative IPC: 1.171 (Simulation time: 00 hr 06 min 48 sec)

ChampSim completed all CPUs

=== Simulation ===
CPU 0 runs traces/603.bwaves_s-1740B.champsimtrace.xz

Region of Interest Statistics

CPU 0 cumulative IPC: 1.171 instructions: 50000000 cycles: 42711579
CPU 0 Branch Prediction Accuracy: 99.97% MPKI: 0.00734 Average ROB Occupancy at Mispredict: 189.9
Branch type MPKI
BRANCH_DIRECT_JUMP: 0
BRANCH_INDIRECT: 0
BRANCH_CONDITIONAL: 0.00734
BRANCH_DIRECT_CALL: 0
BRANCH_INDIRECT_CALL: 0
BRANCH_RETURN: 0

cpu0->cpu0_STLB TOTAL        ACCESS:       7425 HIT:        365 MISS:       7060 MSHR_MERGE:          0
cpu0->cpu0_STLB LOAD         ACCESS:       7425 HIT:        365 MISS:       7060 MSHR_MERGE:          0
cpu0->cpu0_STLB RFO          ACCESS:          0 HIT:          0 MISS:          0 MSHR_MERGE:          0
cpu0->cpu0_STLB PREFETCH     ACCESS:          0 HIT:          0 MISS:          0 MSHR_MERGE:          0
cpu0->cpu0_STLB WRITE        ACCESS:          0 HIT:          0 MISS:          0 MSHR_MERGE:          0
cpu0->cpu0_STLB TRANSLATION  ACCESS:          0 HIT:          0 MISS:          0 MSHR_MERGE:          0
cpu0->cpu0_STLB PREFETCH REQUESTED:          0 ISSUED:          0 USEFUL:          0 USELESS:          0
cpu0->cpu0_STLB AVERAGE MISS LATENCY: 689.7 cycles
cpu0->cpu0_L2C TOTAL        ACCESS:    3082604 HIT:    1816116 MISS:    1266488 MSHR_MERGE:     298506
cpu0->cpu0_L2C LOAD         ACCESS:    1019547 HIT:     876152 MISS:     143395 MSHR_MERGE:     123918
cpu0->cpu0_L2C RFO          ACCESS:      32748 HIT:       8386 MISS:      24362 MSHR_MERGE:          0
cpu0->cpu0_L2C PREFETCH     ACCESS:    1980291 HIT:     892078 MISS:    1088213 MSHR_MERGE:     174588
cpu0->cpu0_L2C WRITE        ACCESS:      36442 HIT:      36411 MISS:         31 MSHR_MERGE:          0
cpu0->cpu0_L2C TRANSLATION  ACCESS:      13576 HIT:       3089 MISS:      10487 MSHR_MERGE:          0
cpu0->cpu0_L2C PREFETCH REQUESTED:    2026910 ISSUED:    1980283 USEFUL:     913294 USELESS:        333
cpu0->cpu0_L2C AVERAGE MISS LATENCY: 133.3 cycles
cpu0->cpu0_L1I TOTAL        ACCESS:   12005498 HIT:   12005498 MISS:          0 MSHR_MERGE:          0
cpu0->cpu0_L1I LOAD         ACCESS:   12005498 HIT:   12005498 MISS:          0 MSHR_MERGE:          0
cpu0->cpu0_L1I RFO          ACCESS:          0 HIT:          0 MISS:          0 MSHR_MERGE:          0
cpu0->cpu0_L1I PREFETCH     ACCESS:          0 HIT:          0 MISS:          0 MSHR_MERGE:          0
cpu0->cpu0_L1I WRITE        ACCESS:          0 HIT:          0 MISS:          0 MSHR_MERGE:          0
cpu0->cpu0_L1I TRANSLATION  ACCESS:          0 HIT:          0 MISS:          0 MSHR_MERGE:          0
cpu0->cpu0_L1I PREFETCH REQUESTED:          0 ISSUED:          0 USEFUL:          0 USELESS:          0
cpu0->cpu0_L1I AVERAGE MISS LATENCY: - cycles
cpu0->cpu0_L1D TOTAL        ACCESS:   17008113 HIT:   15865998 MISS:    1142115 MSHR_MERGE:      76116
cpu0->cpu0_L1D LOAD         ACCESS:   14177365 HIT:   13107554 MISS:    1069811 MSHR_MERGE:      50208
cpu0->cpu0_L1D RFO          ACCESS:          0 HIT:          0 MISS:          0 MSHR_MERGE:          0
cpu0->cpu0_L1D PREFETCH     ACCESS:          0 HIT:          0 MISS:          0 MSHR_MERGE:          0
cpu0->cpu0_L1D WRITE        ACCESS:    2816699 HIT:    2758172 MISS:      58527 MSHR_MERGE:      25707
cpu0->cpu0_L1D TRANSLATION  ACCESS:      14049 HIT:        272 MISS:      13777 MSHR_MERGE:        201
cpu0->cpu0_L1D PREFETCH REQUESTED:          0 ISSUED:          0 USEFUL:          0 USELESS:          0
cpu0->cpu0_L1D AVERAGE MISS LATENCY: 38.74 cycles
cpu0->cpu0_ITLB TOTAL        ACCESS:   10871251 HIT:   10871251 MISS:          0 MSHR_MERGE:          0
cpu0->cpu0_ITLB LOAD         ACCESS:   10871251 HIT:   10871251 MISS:          0 MSHR_MERGE:          0
cpu0->cpu0_ITLB RFO          ACCESS:          0 HIT:          0 MISS:          0 MSHR_MERGE:          0
cpu0->cpu0_ITLB PREFETCH     ACCESS:          0 HIT:          0 MISS:          0 MSHR_MERGE:          0
cpu0->cpu0_ITLB WRITE        ACCESS:          0 HIT:          0 MISS:          0 MSHR_MERGE:          0
cpu0->cpu0_ITLB TRANSLATION  ACCESS:          0 HIT:          0 MISS:          0 MSHR_MERGE:          0
cpu0->cpu0_ITLB PREFETCH REQUESTED:          0 ISSUED:          0 USEFUL:          0 USELESS:          0
cpu0->cpu0_ITLB AVERAGE MISS LATENCY: - cycles
cpu0->cpu0_DTLB TOTAL        ACCESS:   16352415 HIT:   16339790 MISS:      12625 MSHR_MERGE:       5200
cpu0->cpu0_DTLB LOAD         ACCESS:   16352415 HIT:   16339790 MISS:      12625 MSHR_MERGE:       5200
cpu0->cpu0_DTLB RFO          ACCESS:          0 HIT:          0 MISS:          0 MSHR_MERGE:          0
cpu0->cpu0_DTLB PREFETCH     ACCESS:          0 HIT:          0 MISS:          0 MSHR_MERGE:          0
cpu0->cpu0_DTLB WRITE        ACCESS:          0 HIT:          0 MISS:          0 MSHR_MERGE:          0
cpu0->cpu0_DTLB TRANSLATION  ACCESS:          0 HIT:          0 MISS:          0 MSHR_MERGE:          0
cpu0->cpu0_DTLB PREFETCH REQUESTED:          0 ISSUED:          0 USEFUL:          0 USELESS:          0
cpu0->cpu0_DTLB AVERAGE MISS LATENCY: 660.7 cycles
cpu0->LLC TOTAL        ACCESS:     992460 HIT:      31838 MISS:     960622 MSHR_MERGE:          0
cpu0->LLC LOAD         ACCESS:      19477 HIT:        900 MISS:      18577 MSHR_MERGE:          0
cpu0->LLC RFO          ACCESS:      24362 HIT:          0 MISS:      24362 MSHR_MERGE:          0
cpu0->LLC PREFETCH     ACCESS:     913625 HIT:       6339 MISS:     907286 MSHR_MERGE:          0
cpu0->LLC WRITE        ACCESS:      24509 HIT:      24452 MISS:         57 MSHR_MERGE:          0
cpu0->LLC TRANSLATION  ACCESS:      10487 HIT:        147 MISS:      10340 MSHR_MERGE:          0
cpu0->LLC PREFETCH REQUESTED:          0 ISSUED:          0 USEFUL:          0 USELESS:          0
cpu0->LLC AVERAGE MISS LATENCY: 167.9 cycles

DRAM Statistics

Channel 0 RQ ROW_BUFFER_HIT:        605
  ROW_BUFFER_MISS:     959960
  AVG DBUS CONGESTED CYCLE: 4.073
Channel 0 WQ ROW_BUFFER_HIT:       2059
  ROW_BUFFER_MISS:      21987
  FULL:          0
Channel 0 REFRESHES ISSUED:       3559
