[VMEM] WARNING: physical memory size is smaller than virtual memory size.
WARNING: option --warmup_instructions is deprecated. Use --warmup-instructions instead.
WARNING: option --simulation_instructions is deprecated. Use --simulation-instructions instead.

*** ChampSim Multicore Out-of-Order Simulator ***
Warmup Instructions: 20000000
Simulation Instructions: 50000000
Number of CPUs: 1
Page size: 8192

Off-chip DRAM Size: 16 GiB Channels: 1 Width: 64-bit Data Rate: 3205 MT/s
Heartbeat CPU 0 instructions: 10000001 cycles: 4631900 heartbeat IPC: 2.159 cumulative IPC: 2.159 (Simulation time: 00 hr 00 min 48 sec)
Heartbeat CPU 0 instructions: 20000002 cycles: 9209956 heartbeat IPC: 2.184 cumulative IPC: 2.172 (Simulation time: 00 hr 01 min 35 sec)
Warmup finished CPU 0 instructions: 20000002 cycles: 9209956 cumulative IPC: 2.172 (Simulation time: 00 hr 01 min 35 sec)
Warmup complete CPU 0 instructions: 20000002 cycles: 9209956 cumulative IPC: 2.172 (Simulation time: 00 hr 01 min 35 sec)
Heartbeat CPU 0 instructions: 30000005 cycles: 36254530 heartbeat IPC: 0.3698 cumulative IPC: 0.3698 (Simulation time: 00 hr 03 min 27 sec)
Heartbeat CPU 0 instructions: 40000005 cycles: 63242722 heartbeat IPC: 0.3705 cumulative IPC: 0.3701 (Simulation time: 00 hr 05 min 19 sec)
Heartbeat CPU 0 instructions: 50000007 cycles: 90647273 heartbeat IPC: 0.3649 cumulative IPC: 0.3684 (Simulation time: 00 hr 07 min 17 sec)
Heartbeat CPU 0 instructions: 60000007 cycles: 117999814 heartbeat IPC: 0.3656 cumulative IPC: 0.3677 (Simulation time: 00 hr 09 min 10 sec)
Simulation finished CPU 0 instructions: 50000002 cycles: 136553702 cumulative IPC: 0.3662 (Simulation time: 00 hr 11 min 04 sec)
Simulation complete CPU 0 instructions: 50000002 cycles: 136553702 cumulative IPC: 0.3662 (Simulation time: 00 hr 11 min 04 sec)

ChampSim completed all CPUs

=== Simulation ===
CPU 0 runs traces/605.mcf_s-1152B.champsimtrace.xz

Region of Interest Statistics

CPU 0 cumulative IPC: 0.3662 instructions: 50000002 cycles: 136553702
CPU 0 Branch Prediction Accuracy: 90.19% MPKI: 24.48 Average ROB Occupancy at Mispredict: 21.37
Branch type MPKI
BRANCH_DIRECT_JUMP: 0.2057
BRANCH_INDIRECT: 0
BRANCH_CONDITIONAL: 24.27
BRANCH_DIRECT_CALL: 0
BRANCH_INDIRECT_CALL: 0.0036
BRANCH_RETURN: 2e-05

cpu0->cpu0_STLB TOTAL        ACCESS:    1006219 HIT:    1000462 MISS:       5757 MSHR_MERGE:          0
cpu0->cpu0_STLB LOAD         ACCESS:    1006219 HIT:    1000462 MISS:       5757 MSHR_MERGE:          0
cpu0->cpu0_STLB RFO          ACCESS:          0 HIT:          0 MISS:          0 MSHR_MERGE:          0
cpu0->cpu0_STLB PREFETCH     ACCESS:          0 HIT:          0 MISS:          0 MSHR_MERGE:          0
cpu0->cpu0_STLB WRITE        ACCESS:          0 HIT:          0 MISS:          0 MSHR_MERGE:          0
cpu0->cpu0_STLB TRANSLATION  ACCESS:          0 HIT:          0 MISS:          0 MSHR_MERGE:          0
cpu0->cpu0_STLB PREFETCH REQUESTED:          0 ISSUED:          0 USEFUL:          0 USELESS:          0
cpu0->cpu0_STLB AVERAGE MISS LATENCY: 617.1 cycles
cpu0->cpu0_L2C TOTAL        ACCESS:    5517727 HIT:    1697329 MISS:    3820398 MSHR_MERGE:     178945
cpu0->cpu0_L2C LOAD         ACCESS:    2552742 HIT:    1009900 MISS:    1542842 MSHR_MERGE:     129776
cpu0->cpu0_L2C RFO          ACCESS:     187386 HIT:      37453 MISS:     149933 MSHR_MERGE:          1
cpu0->cpu0_L2C PREFETCH     ACCESS:    2503460 HIT:     383388 MISS:    2120072 MSHR_MERGE:      49168
cpu0->cpu0_L2C WRITE        ACCESS:     265788 HIT:     265106 MISS:        682 MSHR_MERGE:          0
cpu0->cpu0_L2C TRANSLATION  ACCESS:       8351 HIT:       1482 MISS:       6869 MSHR_MERGE:          0
cpu0->cpu0_L2C PREFETCH REQUESTED:    2503461 ISSUED:    2503461 USEFUL:     783209 USELESS:    1287718
cpu0->cpu0_L2C AVERAGE MISS LATENCY: 50.7 cycles
cpu0->cpu0_L1I TOTAL        ACCESS:     431890 HIT:     431890 MISS:          0 MSHR_MERGE:          0
cpu0->cpu0_L1I LOAD         ACCESS:     431890 HIT:     431890 MISS:          0 MSHR_MERGE:          0
cpu0->cpu0_L1I RFO          ACCESS:          0 HIT:          0 MISS:          0 MSHR_MERGE:          0
cpu0->cpu0_L1I PREFETCH     ACCESS:          0 HIT:          0 MISS:          0 MSHR_MERGE:          0
cpu0->cpu0_L1I WRITE        ACCESS:          0 HIT:          0 MISS:          0 MSHR_MERGE:          0
cpu0->cpu0_L1I TRANSLATION  ACCESS:          0 HIT:          0 MISS:          0 MSHR_MERGE:          0
cpu0->cpu0_L1I PREFETCH REQUESTED:          0 ISSUED:          0 USEFUL:          0 USELESS:          0
cpu0->cpu0_L1I AVERAGE MISS LATENCY: - cycles
cpu0->cpu0_L1D TOTAL        ACCESS:   17981716 HIT:   14403486 MISS:    3578230 MSHR_MERGE:     829747
cpu0->cpu0_L1D LOAD         ACCESS:   12805866 HIT:    9724020 MISS:    3081846 MSHR_MERGE:     529103
cpu0->cpu0_L1D RFO          ACCESS:          0 HIT:          0 MISS:          0 MSHR_MERGE:          0
cpu0->cpu0_L1D PREFETCH     ACCESS:          0 HIT:          0 MISS:          0 MSHR_MERGE:          0
cpu0->cpu0_L1D WRITE        ACCESS:    5164240 HIT:    4676207 MISS:     488033 MSHR_MERGE:     300644
cpu0->cpu0_L1D TRANSLATION  ACCESS:      11610 HIT:       3259 MISS:       8351 MSHR_MERGE:          0
cpu0->cpu0_L1D PREFETCH REQUESTED:          0 ISSUED:          0 USEFUL:          0 USELESS:          0
cpu0->cpu0_L1D AVERAGE MISS LATENCY: 39.99 cycles
cpu0->cpu0_ITLB TOTAL        ACCESS:     400624 HIT:     400624 MISS:          0 MSHR_MERGE:          0
cpu0->cpu0_ITLB LOAD         ACCESS:     400624 HIT:     400624 MISS:          0 MSHR_MERGE:          0
cpu0->cpu0_ITLB RFO          ACCESS:          0 HIT:          0 MISS:          0 MSHR_MERGE:          0
cpu0->cpu0_ITLB PREFETCH     ACCESS:          0 HIT:          0 MISS:          0 MSHR_MERGE:          0
cpu0->cpu0_ITLB WRITE        ACCESS:          0 HIT:          0 MISS:          0 MSHR_MERGE:          0
cpu0->cpu0_ITLB TRANSLATION  ACCESS:          0 HIT:          0 MISS:          0 MSHR_MERGE:          0
cpu0->cpu0_ITLB PREFETCH REQUESTED:          0 ISSUED:          0 USEFUL:          0 USELESS:          0
cpu0->cpu0_ITLB AVERAGE MISS LATENCY: - cycles
cpu0->cpu0_DTLB TOTAL        ACCESS:   16843689 HIT:   15653047 MISS:    1190642 MSHR_MERGE:     184423
cpu0->cpu0_DTLB LOAD         ACCESS:   16843689 HIT:   15653047 MISS:    1190642 MSHR_MERGE:     184423
cpu0->cpu0_DTLB RFO          ACCESS:          0 HIT:          0 MISS:          0 MSHR_MERGE:          0
cpu0->cpu0_DTLB PREFETCH     ACCESS:          0 HIT:          0 MISS:          0 MSHR_MERGE:          0
cpu0->cpu0_DTLB WRITE        ACCESS:          0 HIT:          0 MISS:          0 MSHR_MERGE:          0
cpu0->cpu0_DTLB TRANSLATION  ACCESS:          0 HIT:          0 MISS:          0 MSHR_MERGE:          0
cpu0->cpu0_DTLB PREFETCH REQUESTED:          0 ISSUED:          0 USEFUL:          0 USELESS:          0
cpu0->cpu0_DTLB AVERAGE MISS LATENCY: 7.536 cycles
cpu0->LLC TOTAL        ACCESS:    3853714 HIT:    2509789 MISS:    1343925 MSHR_MERGE:          0
cpu0->LLC LOAD         ACCESS:    1413066 HIT:    1107098 MISS:     305968 MSHR_MERGE:          0
cpu0->LLC RFO          ACCESS:     149932 HIT:     148465 MISS:       1467 MSHR_MERGE:          0
cpu0->LLC PREFETCH     ACCESS:    2070904 HIT:    1041289 MISS:    1029615 MSHR_MERGE:          0
cpu0->LLC WRITE        ACCESS:     212943 HIT:     212848 MISS:         95 MSHR_MERGE:          0
cpu0->LLC TRANSLATION  ACCESS:       6869 HIT:         89 MISS:       6780 MSHR_MERGE:          0
cpu0->LLC PREFETCH REQUESTED:          0 ISSUED:          0 USEFUL:          0 USELESS:          0
cpu0->LLC AVERAGE MISS LATENCY: 154.1 cycles

DRAM Statistics

Channel 0 RQ ROW_BUFFER_HIT:     164478
  ROW_BUFFER_MISS:    1179234
  AVG DBUS CONGESTED CYCLE: 21.87
Channel 0 WQ ROW_BUFFER_HIT:       1561
  ROW_BUFFER_MISS:       6146
  FULL:          0
Channel 0 REFRESHES ISSUED:      11379
