[VMEM] WARNING: physical memory size is smaller than virtual memory size.
WARNING: option --warmup_instructions is deprecated. Use --warmup-instructions instead.
WARNING: option --simulation_instructions is deprecated. Use --simulation-instructions instead.

*** ChampSim Multicore Out-of-Order Simulator ***
Warmup Instructions: 20000000
Simulation Instructions: 50000000
Number of CPUs: 1
Page size: 8192

Off-chip DRAM Size: 16 GiB Channels: 1 Width: 64-bit Data Rate: 3205 MT/s
Heartbeat CPU 0 instructions: 10000002 cycles: 6007814 heartbeat IPC: 1.664 cumulative IPC: 1.664 (Simulation time: 00 hr 01 min 56 sec)
Heartbeat CPU 0 instructions: 20000002 cycles: 11898173 heartbeat IPC: 1.698 cumulative IPC: 1.681 (Simulation time: 00 hr 03 min 59 sec)
Warmup finished CPU 0 instructions: 20000002 cycles: 11898173 cumulative IPC: 1.681 (Simulation time: 00 hr 03 min 59 sec)
Warmup complete CPU 0 instructions: 20000002 cycles: 11898173 cumulative IPC: 1.681 (Simulation time: 00 hr 03 min 59 sec)
Heartbeat CPU 0 instructions: 30000003 cycles: 35063029 heartbeat IPC: 0.4317 cumulative IPC: 0.4317 (Simulation time: 00 hr 09 min 31 sec)
Heartbeat CPU 0 instructions: 40000004 cycles: 46122334 heartbeat IPC: 0.9042 cumulative IPC: 0.5844 (Simulation time: 00 hr 12 min 28 sec)
Heartbeat CPU 0 instructions: 50000004 cycles: 63340906 heartbeat IPC: 0.5808 cumulative IPC: 0.5832 (Simulation time: 00 hr 16 min 48 sec)
Heartbeat CPU 0 instructions: 60000006 cycles: 92264374 heartbeat IPC: 0.3457 cumulative IPC: 0.4977 (Simulation time: 00 hr 23 min 36 sec)
Simulation finished CPU 0 instructions: 50000000 cycles: 96726606 cumulative IPC: 0.5169 (Simulation time: 00 hr 27 min 41 sec)
Simulation complete CPU 0 instructions: 50000000 cycles: 96726606 cumulative IPC: 0.5169 (Simulation time: 00 hr 27 min 41 sec)

ChampSim completed all CPUs

=== Simulation ===
CPU 0 runs traces/A2/429.mcf-217B.champsimtrace.xz

Region of Interest Statistics

CPU 0 cumulative IPC: 0.5169 instructions: 50000000 cycles: 96726606
CPU 0 Branch Prediction Accuracy: 98.95% MPKI: 1.194 Average ROB Occupancy at Mispredict: 105
Branch type MPKI
BRANCH_DIRECT_JUMP: 0
BRANCH_INDIRECT: 0
BRANCH_CONDITIONAL: 1.194
BRANCH_DIRECT_CALL: 0
BRANCH_INDIRECT_CALL: 0
BRANCH_RETURN: 0

cpu0->cpu0_STLB TOTAL        ACCESS:      58017 HIT:      56167 MISS:       1850 MSHR_MERGE:          0
cpu0->cpu0_STLB LOAD         ACCESS:      58017 HIT:      56167 MISS:       1850 MSHR_MERGE:          0
cpu0->cpu0_STLB RFO          ACCESS:          0 HIT:          0 MISS:          0 MSHR_MERGE:          0
cpu0->cpu0_STLB PREFETCH     ACCESS:          0 HIT:          0 MISS:          0 MSHR_MERGE:          0
cpu0->cpu0_STLB WRITE        ACCESS:          0 HIT:          0 MISS:          0 MSHR_MERGE:          0
cpu0->cpu0_STLB TRANSLATION  ACCESS:          0 HIT:          0 MISS:          0 MSHR_MERGE:          0
cpu0->cpu0_STLB PREFETCH REQUESTED:          0 ISSUED:          0 USEFUL:          0 USELESS:          0
cpu0->cpu0_STLB AVERAGE MISS LATENCY: 691.4 cycles
cpu0->cpu0_L2C TOTAL        ACCESS:    7452458 HIT:    3846667 MISS:    3605791 MSHR_MERGE:     835263
cpu0->cpu0_L2C LOAD         ACCESS:    2598474 HIT:    1729791 MISS:     868683 MSHR_MERGE:     105737
cpu0->cpu0_L2C RFO          ACCESS:       1567 HIT:       1382 MISS:        185 MSHR_MERGE:          0
cpu0->cpu0_L2C PREFETCH     ACCESS:    4752811 HIT:    2019652 MISS:    2733159 MSHR_MERGE:     729526
cpu0->cpu0_L2C WRITE        ACCESS:      96215 HIT:      95344 MISS:        871 MSHR_MERGE:          0
cpu0->cpu0_L2C TRANSLATION  ACCESS:       3391 HIT:        498 MISS:       2893 MSHR_MERGE:          0
cpu0->cpu0_L2C PREFETCH REQUESTED:    4752822 ISSUED:    4752795 USEFUL:    1815858 USELESS:      82490
cpu0->cpu0_L2C AVERAGE MISS LATENCY: 123.7 cycles
cpu0->cpu0_L1I TOTAL        ACCESS:    9372682 HIT:    9372682 MISS:          0 MSHR_MERGE:          0
cpu0->cpu0_L1I LOAD         ACCESS:    9372682 HIT:    9372682 MISS:          0 MSHR_MERGE:          0
cpu0->cpu0_L1I RFO          ACCESS:          0 HIT:          0 MISS:          0 MSHR_MERGE:          0
cpu0->cpu0_L1I PREFETCH     ACCESS:          0 HIT:          0 MISS:          0 MSHR_MERGE:          0
cpu0->cpu0_L1I WRITE        ACCESS:          0 HIT:          0 MISS:          0 MSHR_MERGE:          0
cpu0->cpu0_L1I TRANSLATION  ACCESS:          0 HIT:          0 MISS:          0 MSHR_MERGE:          0
cpu0->cpu0_L1I PREFETCH REQUESTED:          0 ISSUED:          0 USEFUL:          0 USELESS:          0
cpu0->cpu0_L1I AVERAGE MISS LATENCY: - cycles
cpu0->cpu0_L1D TOTAL        ACCESS:   16515166 HIT:   13583969 MISS:    2931197 MSHR_MERGE:     327733
cpu0->cpu0_L1D LOAD         ACCESS:    8629329 HIT:    5705308 MISS:    2924021 MSHR_MERGE:     325515
cpu0->cpu0_L1D RFO          ACCESS:          0 HIT:          0 MISS:          0 MSHR_MERGE:          0
cpu0->cpu0_L1D PREFETCH     ACCESS:          0 HIT:          0 MISS:          0 MSHR_MERGE:          0
cpu0->cpu0_L1D WRITE        ACCESS:    7882130 HIT:    7878345 MISS:       3785 MSHR_MERGE:       2218
cpu0->cpu0_L1D TRANSLATION  ACCESS:       3707 HIT:        316 MISS:       3391 MSHR_MERGE:          0
cpu0->cpu0_L1D PREFETCH REQUESTED:          0 ISSUED:          0 USEFUL:          0 USELESS:          0
cpu0->cpu0_L1D AVERAGE MISS LATENCY: 49.8 cycles
cpu0->cpu0_ITLB TOTAL        ACCESS:    8142251 HIT:    8142251 MISS:          0 MSHR_MERGE:          0
cpu0->cpu0_ITLB LOAD         ACCESS:    8142251 HIT:    8142251 MISS:          0 MSHR_MERGE:          0
cpu0->cpu0_ITLB RFO          ACCESS:          0 HIT:          0 MISS:          0 MSHR_MERGE:          0
cpu0->cpu0_ITLB PREFETCH     ACCESS:          0 HIT:          0 MISS:          0 MSHR_MERGE:          0
cpu0->cpu0_ITLB WRITE        ACCESS:          0 HIT:          0 MISS:          0 MSHR_MERGE:          0
cpu0->cpu0_ITLB TRANSLATION  ACCESS:          0 HIT:          0 MISS:          0 MSHR_MERGE:          0
cpu0->cpu0_ITLB PREFETCH REQUESTED:          0 ISSUED:          0 USEFUL:          0 USELESS:          0
cpu0->cpu0_ITLB AVERAGE MISS LATENCY: - cycles
cpu0->cpu0_DTLB TOTAL        ACCESS:   15026391 HIT:   14952151 MISS:      74240 MSHR_MERGE:      16223
cpu0->cpu0_DTLB LOAD         ACCESS:   15026391 HIT:   14952151 MISS:      74240 MSHR_MERGE:      16223
cpu0->cpu0_DTLB RFO          ACCESS:          0 HIT:          0 MISS:          0 MSHR_MERGE:          0
cpu0->cpu0_DTLB PREFETCH     ACCESS:          0 HIT:          0 MISS:          0 MSHR_MERGE:          0
cpu0->cpu0_DTLB WRITE        ACCESS:          0 HIT:          0 MISS:          0 MSHR_MERGE:          0
cpu0->cpu0_DTLB TRANSLATION  ACCESS:          0 HIT:          0 MISS:          0 MSHR_MERGE:          0
cpu0->cpu0_DTLB PREFETCH REQUESTED:          0 ISSUED:          0 USEFUL:          0 USELESS:          0
cpu0->cpu0_DTLB AVERAGE MISS LATENCY: 26.08 cycles
cpu0->LLC TOTAL        ACCESS:    2850294 HIT:     982190 MISS:    1868104 MSHR_MERGE:      11488
cpu0->LLC LOAD         ACCESS:     762946 HIT:     222565 MISS:     540381 MSHR_MERGE:       1607
cpu0->LLC RFO          ACCESS:        185 HIT:        120 MISS:         65 MSHR_MERGE:          0
cpu0->LLC PREFETCH     ACCESS:    2003633 HIT:     738530 MISS:    1265103 MSHR_MERGE:       9881
cpu0->LLC WRITE        ACCESS:      80637 HIT:      20964 MISS:      59673 MSHR_MERGE:          0
cpu0->LLC TRANSLATION  ACCESS:       2893 HIT:         11 MISS:       2882 MSHR_MERGE:          0
cpu0->LLC PREFETCH REQUESTED:          0 ISSUED:          0 USEFUL:          0 USELESS:          0
cpu0->LLC AVERAGE MISS LATENCY: 145.1 cycles

DRAM Statistics

Channel 0 RQ ROW_BUFFER_HIT:     153503
  ROW_BUFFER_MISS:    1643231
  AVG DBUS CONGESTED CYCLE: 14.46
Channel 0 WQ ROW_BUFFER_HIT:      17400
  ROW_BUFFER_MISS:      63914
  FULL:          0
Channel 0 REFRESHES ISSUED:       8061
